MODEL 1
REMARK VINA RESULT:    -3.448      0.000      0.000
REMARK INTER + INTRA:          -3.952
REMARK INTER:                  -3.952
REMARK INTRA:                   0.000
REMARK UNBOUND:                 0.000
REMARK  Name = 179
REMARK  4 active torsions:
REMARK  status: ('A' for Active; 'I' for Inactive)
REMARK    1  A    between atoms: O_1  and  C_3
REMARK    2  A    between atoms: C_3  and  C_4
REMARK    3  A    between atoms: C_3  and  C_5
REMARK    4  A    between atoms: C_4  and  C_6
REMARK                            x       y       z     vdW  Elec       q    Type
REMARK                         _______ _______ _______ _____ _____    ______ ____
ROOT
ATOM      1  C   UNL     1      -8.498 -11.031  15.450  0.00  0.00    +0.000 C 
ATOM      2  H   UNL     1      -8.917 -11.820  16.083  0.00  0.00    +0.000 HD
ENDROOT
BRANCH   1   3
ATOM      3  C   UNL     1      -7.930 -11.615  14.169  0.00  0.00    +0.000 C 
ATOM      4  H   UNL     1      -7.610 -10.820  13.485  0.00  0.00    +0.000 HD
ATOM      5  H   UNL     1      -8.663 -12.237  13.647  0.00  0.00    +0.000 HD
ATOM      6  H   UNL     1      -7.047 -12.226  14.382  0.00  0.00    +0.000 HD
ENDBRANCH   1   3
BRANCH   1   7
ATOM      7  O   UNL     1      -7.440 -10.407  16.159  0.00  0.00    +0.000 OA
ATOM      8  H   UNL     1      -7.814 -10.038  16.977  0.00  0.00    +0.000 HD
ENDBRANCH   1   7
BRANCH   1  10
ATOM      9  O   UNL     1      -9.415  -9.086  14.353  0.00  0.00    +0.000 OA
ATOM     10  C   UNL     1      -9.581 -10.000  15.161  0.00  0.00    +0.000 C 
BRANCH  10  11
ATOM     11  C   UNL     1     -10.884 -10.145  15.905  0.00  0.00    +0.000 C 
ATOM     12  H   UNL     1     -10.727  -9.955  16.968  0.00  0.00    +0.000 HD
ATOM     13  H   UNL     1     -11.268 -11.161  15.776  0.00  0.00    +0.000 HD
ATOM     14  H   UNL     1     -11.620  -9.445  15.500  0.00  0.00    +0.000 HD
ENDBRANCH  10  11
ENDBRANCH   1  10
TORSDOF 4
ENDMDL
MODEL 2
REMARK VINA RESULT:    -3.386     28.330     28.794
REMARK INTER + INTRA:          -3.881
REMARK INTER:                  -3.881
REMARK INTRA:                   0.000
REMARK UNBOUND:                 0.000
REMARK  Name = 179
REMARK  4 active torsions:
REMARK  status: ('A' for Active; 'I' for Inactive)
REMARK    1  A    between atoms: O_1  and  C_3
REMARK    2  A    between atoms: C_3  and  C_4
REMARK    3  A    between atoms: C_3  and  C_5
REMARK    4  A    between atoms: C_4  and  C_6
REMARK                            x       y       z     vdW  Elec       q    Type
REMARK                         _______ _______ _______ _____ _____    ______ ____
ROOT
ATOM      1  C   UNL     1       4.310  11.127  -0.058  0.00  0.00    +0.000 C 
ATOM      2  H   UNL     1       5.344  10.845  -0.283  0.00  0.00    +0.000 HD
ENDROOT
BRANCH   1   3
ATOM      3  C   UNL     1       3.485  11.201  -1.331  0.00  0.00    +0.000 C 
ATOM      4  H   UNL     1       2.983  12.171  -1.415  0.00  0.00    +0.000 HD
ATOM      5  H   UNL     1       2.721  10.418  -1.364  0.00  0.00    +0.000 HD
ATOM      6  H   UNL     1       4.126  11.096  -2.212  0.00  0.00    +0.000 HD
ENDBRANCH   1   3
BRANCH   1   7
ATOM      7  O   UNL     1       4.321  12.415   0.537  0.00  0.00    +0.000 OA
ATOM      8  H   UNL     1       5.232  12.752   0.485  0.00  0.00    +0.000 HD
ENDBRANCH   1   7
BRANCH   1  10
ATOM      9  O   UNL     1       3.226  10.477   1.997  0.00  0.00    +0.000 OA
ATOM     10  C   UNL     1       3.726  10.127   0.929  0.00  0.00    +0.000 C 
BRANCH  10  11
ATOM     11  C   UNL     1       3.776   8.670   0.542  0.00  0.00    +0.000 C 
ATOM     12  H   UNL     1       3.304   8.064   1.318  0.00  0.00    +0.000 HD
ATOM     13  H   UNL     1       4.818   8.358   0.428  0.00  0.00    +0.000 HD
ATOM     14  H   UNL     1       3.266   8.524  -0.415  0.00  0.00    +0.000 HD
ENDBRANCH  10  11
ENDBRANCH   1  10
TORSDOF 4
ENDMDL
MODEL 3
REMARK VINA RESULT:    -3.384     28.326     28.753
REMARK INTER + INTRA:          -3.879
REMARK INTER:                  -3.879
REMARK INTRA:                   0.000
REMARK UNBOUND:                 0.000
REMARK  Name = 179
REMARK  4 active torsions:
REMARK  status: ('A' for Active; 'I' for Inactive)
REMARK    1  A    between atoms: O_1  and  C_3
REMARK    2  A    between atoms: C_3  and  C_4
REMARK    3  A    between atoms: C_3  and  C_5
REMARK    4  A    between atoms: C_4  and  C_6
REMARK                            x       y       z     vdW  Elec       q    Type
REMARK                         _______ _______ _______ _____ _____    ______ ____
ROOT
ATOM      1  C   UNL     1       3.608   9.944   0.828  0.00  0.00    +0.000 C 
ATOM      2  H   UNL     1       2.806   9.365   0.357  0.00  0.00    +0.000 HD
ENDROOT
BRANCH   1   3
ATOM      3  C   UNL     1       4.883   9.124   0.913  0.00  0.00    +0.000 C 
ATOM      4  H   UNL     1       5.540   9.505   1.703  0.00  0.00    +0.000 HD
ATOM      5  H   UNL     1       5.438   9.140  -0.029  0.00  0.00    +0.000 HD
ATOM      6  H   UNL     1       4.656   8.083   1.163  0.00  0.00    +0.000 HD
ENDBRANCH   1   3
BRANCH   1   7
ATOM      7  O   UNL     1       3.203  10.270   2.149  0.00  0.00    +0.000 OA
ATOM      8  H   UNL     1       2.691  11.095   2.101  0.00  0.00    +0.000 HD
ENDBRANCH   1   7
BRANCH   1  10
ATOM      9  O   UNL     1       4.343  12.224   0.541  0.00  0.00    +0.000 OA
ATOM     10  C   UNL     1       3.822  11.228   0.040  0.00  0.00    +0.000 C 
BRANCH  10  11
ATOM     11  C   UNL     1       3.371  11.235  -1.399  0.00  0.00    +0.000 C 
ATOM     12  H   UNL     1       3.059  10.232  -1.694  0.00  0.00    +0.000 HD
ATOM     13  H   UNL     1       4.198  11.556  -2.039  0.00  0.00    +0.000 HD
ATOM     14  H   UNL     1       2.545  11.942  -1.524  0.00  0.00    +0.000 HD
ENDBRANCH  10  11
ENDBRANCH   1  10
TORSDOF 4
ENDMDL
MODEL 4
REMARK VINA RESULT:    -3.355      1.358      2.689
REMARK INTER + INTRA:          -3.845
REMARK INTER:                  -3.845
REMARK INTRA:                   0.000
REMARK UNBOUND:                 0.000
REMARK  Name = 179
REMARK  4 active torsions:
REMARK  status: ('A' for Active; 'I' for Inactive)
REMARK    1  A    between atoms: O_1  and  C_3
REMARK    2  A    between atoms: C_3  and  C_4
REMARK    3  A    between atoms: C_3  and  C_5
REMARK    4  A    between atoms: C_4  and  C_6
REMARK                            x       y       z     vdW  Elec       q    Type
REMARK                         _______ _______ _______ _____ _____    ______ ____
ROOT
ATOM      1  C   UNL     1      -9.473 -10.330  14.762  0.00  0.00    +0.000 C 
ATOM      2  H   UNL     1     -10.090 -10.422  13.862  0.00  0.00    +0.000 HD
ENDROOT
BRANCH   1   3
ATOM      3  C   UNL     1     -10.301 -10.590  16.008  0.00  0.00    +0.000 C 
ATOM      4  H   UNL     1     -10.574 -11.648  16.082  0.00  0.00    +0.000 HD
ATOM      5  H   UNL     1     -11.221  -9.999  16.014  0.00  0.00    +0.000 HD
ATOM      6  H   UNL     1      -9.727 -10.346  16.909  0.00  0.00    +0.000 HD
ENDBRANCH   1   3
BRANCH   1   7
ATOM      7  O   UNL     1      -8.979  -9.001  14.828  0.00  0.00    +0.000 OA
ATOM      8  H   UNL     1      -8.233  -8.998  15.452  0.00  0.00    +0.000 HD
ENDBRANCH   1   7
BRANCH   1  10
ATOM      9  O   UNL     1      -7.705 -11.492  13.602  0.00  0.00    +0.000 OA
ATOM     10  C   UNL     1      -8.300 -11.294  14.661  0.00  0.00    +0.000 C 
BRANCH  10  11
ATOM     11  C   UNL     1      -7.882 -12.004  15.924  0.00  0.00    +0.000 C 
ATOM     12  H   UNL     1      -8.759 -12.421  16.422  0.00  0.00    +0.000 HD
ATOM     13  H   UNL     1      -7.392 -11.294  16.597  0.00  0.00    +0.000 HD
ATOM     14  H   UNL     1      -7.169 -12.798  15.683  0.00  0.00    +0.000 HD
ENDBRANCH  10  11
ENDBRANCH   1  10
TORSDOF 4
ENDMDL
MODEL 5
REMARK VINA RESULT:    -3.308     25.353     26.058
REMARK INTER + INTRA:          -3.791
REMARK INTER:                  -3.791
REMARK INTRA:                   0.000
REMARK UNBOUND:                 0.000
REMARK  Name = 179
REMARK  4 active torsions:
REMARK  status: ('A' for Active; 'I' for Inactive)
REMARK    1  A    between atoms: O_1  and  C_3
REMARK    2  A    between atoms: C_3  and  C_4
REMARK    3  A    between atoms: C_3  and  C_5
REMARK    4  A    between atoms: C_4  and  C_6
REMARK                            x       y       z     vdW  Elec       q    Type
REMARK                         _______ _______ _______ _____ _____    ______ ____
ROOT
ATOM      1  C   UNL     1      -8.629   6.331  -5.526  0.00  0.00    +0.000 C 
ATOM      2  H   UNL     1      -8.065   6.174  -6.452  0.00  0.00    +0.000 HD
ENDROOT
BRANCH   1   3
ATOM      3  C   UNL     1      -9.554   7.528  -5.658  0.00  0.00    +0.000 C 
ATOM      4  H   UNL     1      -9.848   7.681  -6.702  0.00  0.00    +0.000 HD
ATOM      5  H   UNL     1      -9.080   8.447  -5.299  0.00  0.00    +0.000 HD
ATOM      6  H   UNL     1     -10.475   7.368  -5.088  0.00  0.00    +0.000 HD
ENDBRANCH   1   3
BRANCH   1   7
ATOM      7  O   UNL     1      -7.705   6.598  -4.483  0.00  0.00    +0.000 OA
ATOM      8  H   UNL     1      -7.467   7.539  -4.539  0.00  0.00    +0.000 HD
ENDBRANCH   1   7
BRANCH   1  10
ATOM      9  O   UNL     1     -10.629   5.003  -5.282  0.00  0.00    +0.000 OA
ATOM     10  C   UNL     1      -9.403   5.063  -5.195  0.00  0.00    +0.000 C 
BRANCH  10  11
ATOM     11  C   UNL     1      -8.602   3.863  -4.757  0.00  0.00    +0.000 C 
ATOM     12  H   UNL     1      -7.802   3.668  -5.474  0.00  0.00    +0.000 HD
ATOM     13  H   UNL     1      -9.255   2.987  -4.703  0.00  0.00    +0.000 HD
ATOM     14  H   UNL     1      -8.183   4.041  -3.762  0.00  0.00    +0.000 HD
ENDBRANCH  10  11
ENDBRANCH   1  10
TORSDOF 4
ENDMDL
MODEL 6
REMARK VINA RESULT:    -3.253     31.227     31.849
REMARK INTER + INTRA:          -3.728
REMARK INTER:                  -3.728
REMARK INTRA:                   0.000
REMARK UNBOUND:                 0.000
REMARK  Name = 179
REMARK  4 active torsions:
REMARK  status: ('A' for Active; 'I' for Inactive)
REMARK    1  A    between atoms: O_1  and  C_3
REMARK    2  A    between atoms: C_3  and  C_4
REMARK    3  A    between atoms: C_3  and  C_5
REMARK    4  A    between atoms: C_4  and  C_6
REMARK                            x       y       z     vdW  Elec       q    Type
REMARK                         _______ _______ _______ _____ _____    ______ ____
ROOT
ATOM      1  C   UNL     1      -2.958   7.539 -10.031  0.00  0.00    +0.000 C 
ATOM      2  H   UNL     1      -4.000   7.581 -10.366  0.00  0.00    +0.000 HD
ENDROOT
BRANCH   1   3
ATOM      3  C   UNL     1      -2.056   7.040 -11.145  0.00  0.00    +0.000 C 
ATOM      4  H   UNL     1      -2.095   5.947 -11.219  0.00  0.00    +0.000 HD
ATOM      5  H   UNL     1      -1.014   7.333 -10.985  0.00  0.00    +0.000 HD
ATOM      6  H   UNL     1      -2.383   7.436 -12.112  0.00  0.00    +0.000 HD
ENDBRANCH   1   3
BRANCH   1   7
ATOM      7  O   UNL     1      -2.876   6.623  -8.951  0.00  0.00    +0.000 OA
ATOM      8  H   UNL     1      -2.891   7.141  -8.128  0.00  0.00    +0.000 HD
ENDBRANCH   1   7
BRANCH   1  10
ATOM      9  O   UNL     1      -2.930   9.388  -8.480  0.00  0.00    +0.000 OA
ATOM     10  C   UNL     1      -2.536   8.920  -9.548  0.00  0.00    +0.000 C 
BRANCH  10  11
ATOM     11  C   UNL     1      -1.600   9.702 -10.434  0.00  0.00    +0.000 C 
ATOM     12  H   UNL     1      -2.167  10.209 -11.217  0.00  0.00    +0.000 HD
ATOM     13  H   UNL     1      -0.881   9.020 -10.898  0.00  0.00    +0.000 HD
ATOM     14  H   UNL     1      -1.046  10.430  -9.835  0.00  0.00    +0.000 HD
ENDBRANCH  10  11
ENDBRANCH   1  10
TORSDOF 4
ENDMDL
MODEL 7
REMARK VINA RESULT:    -3.248     32.047     32.682
REMARK INTER + INTRA:          -3.723
REMARK INTER:                  -3.723
REMARK INTRA:                   0.000
REMARK UNBOUND:                 0.000
REMARK  Name = 179
REMARK  4 active torsions:
REMARK  status: ('A' for Active; 'I' for Inactive)
REMARK    1  A    between atoms: O_1  and  C_3
REMARK    2  A    between atoms: C_3  and  C_4
REMARK    3  A    between atoms: C_3  and  C_5
REMARK    4  A    between atoms: C_4  and  C_6
REMARK                            x       y       z     vdW  Elec       q    Type
REMARK                         _______ _______ _______ _____ _____    ______ ____
ROOT
ATOM      1  C   UNL     1      -2.154   9.446 -10.321  0.00  0.00    +0.000 C 
ATOM      2  H   UNL     1      -2.733  10.028 -11.046  0.00  0.00    +0.000 HD
ENDROOT
BRANCH   1   3
ATOM      3  C   UNL     1      -2.803   9.498  -8.950  0.00  0.00    +0.000 C 
ATOM      4  H   UNL     1      -3.229  10.489  -8.757  0.00  0.00    +0.000 HD
ATOM      5  H   UNL     1      -2.087   9.274  -8.154  0.00  0.00    +0.000 HD
ATOM      6  H   UNL     1      -3.628   8.781  -8.886  0.00  0.00    +0.000 HD
ENDBRANCH   1   3
BRANCH   1   7
ATOM      7  O   UNL     1      -0.861  10.022 -10.221  0.00  0.00    +0.000 OA
ATOM      8  H   UNL     1      -0.921  10.931 -10.561  0.00  0.00    +0.000 HD
ENDBRANCH   1   7
BRANCH   1  10
ATOM      9  O   UNL     1      -1.234   7.701 -11.712  0.00  0.00    +0.000 OA
ATOM     10  C   UNL     1      -2.025   8.015 -10.823  0.00  0.00    +0.000 C 
BRANCH  10  11
ATOM     11  C   UNL     1      -2.911   6.978 -10.179  0.00  0.00    +0.000 C 
ATOM     12  H   UNL     1      -3.121   7.261  -9.146  0.00  0.00    +0.000 HD
ATOM     13  H   UNL     1      -2.404   6.008 -10.188  0.00  0.00    +0.000 HD
ATOM     14  H   UNL     1      -3.842   6.884 -10.744  0.00  0.00    +0.000 HD
ENDBRANCH  10  11
ENDBRANCH   1  10
TORSDOF 4
ENDMDL
MODEL 8
REMARK VINA RESULT:    -3.192     29.827     30.274
REMARK INTER + INTRA:          -3.659
REMARK INTER:                  -3.659
REMARK INTRA:                   0.000
REMARK UNBOUND:                 0.000
REMARK  Name = 179
REMARK  4 active torsions:
REMARK  status: ('A' for Active; 'I' for Inactive)
REMARK    1  A    between atoms: O_1  and  C_3
REMARK    2  A    between atoms: C_3  and  C_4
REMARK    3  A    between atoms: C_3  and  C_5
REMARK    4  A    between atoms: C_4  and  C_6
REMARK                            x       y       z     vdW  Elec       q    Type
REMARK                         _______ _______ _______ _____ _____    ______ ____
ROOT
ATOM      1  C   UNL     1       6.367  11.362  -0.516  0.00  0.00    +0.000 C 
ATOM      2  H   UNL     1       6.841  12.336  -0.356  0.00  0.00    +0.000 HD
ENDROOT
BRANCH   1   3
ATOM      3  C   UNL     1       7.171  10.258   0.147  0.00  0.00    +0.000 C 
ATOM      4  H   UNL     1       8.244  10.473   0.098  0.00  0.00    +0.000 HD
ATOM      5  H   UNL     1       6.996   9.288  -0.328  0.00  0.00    +0.000 HD
ATOM      6  H   UNL     1       6.911  10.175   1.207  0.00  0.00    +0.000 HD
ENDBRANCH   1   3
BRANCH   1   7
ATOM      7  O   UNL     1       6.334  11.108  -1.912  0.00  0.00    +0.000 OA
ATOM      8  H   UNL     1       7.213  10.781  -2.169  0.00  0.00    +0.000 HD
ENDBRANCH   1   7
BRANCH   1  10
ATOM      9  O   UNL     1       4.486  12.407   0.576  0.00  0.00    +0.000 OA
ATOM     10  C   UNL     1       4.942  11.411   0.016  0.00  0.00    +0.000 C 
BRANCH  10  11
ATOM     11  C   UNL     1       4.094  10.178  -0.175  0.00  0.00    +0.000 C 
ATOM     12  H   UNL     1       4.694   9.380  -0.614  0.00  0.00    +0.000 HD
ATOM     13  H   UNL     1       3.260  10.409  -0.844  0.00  0.00    +0.000 HD
ATOM     14  H   UNL     1       3.684   9.859   0.788  0.00  0.00    +0.000 HD
ENDBRANCH  10  11
ENDBRANCH   1  10
TORSDOF 4
ENDMDL
MODEL 9
REMARK VINA RESULT:    -3.151      1.969      2.695
REMARK INTER + INTRA:          -3.611
REMARK INTER:                  -3.611
REMARK INTRA:                   0.000
REMARK UNBOUND:                 0.000
REMARK  Name = 179
REMARK  4 active torsions:
REMARK  status: ('A' for Active; 'I' for Inactive)
REMARK    1  A    between atoms: O_1  and  C_3
REMARK    2  A    between atoms: C_3  and  C_4
REMARK    3  A    between atoms: C_3  and  C_5
REMARK    4  A    between atoms: C_4  and  C_6
REMARK                            x       y       z     vdW  Elec       q    Type
REMARK                         _______ _______ _______ _____ _____    ______ ____
ROOT
ATOM      1  C   UNL     1      -7.541 -11.726  15.801  0.00  0.00    +0.000 C 
ATOM      2  H   UNL     1      -6.636 -12.342  15.818  0.00  0.00    +0.000 HD
ENDROOT
BRANCH   1   3
ATOM      3  C   UNL     1      -8.048 -11.556  14.380  0.00  0.00    +0.000 C 
ATOM      4  H   UNL     1      -8.689 -12.397  14.091  0.00  0.00    +0.000 HD
ATOM      5  H   UNL     1      -7.225 -11.493  13.662  0.00  0.00    +0.000 HD
ATOM      6  H   UNL     1      -8.654 -10.649  14.293  0.00  0.00    +0.000 HD
ENDBRANCH   1   3
BRANCH   1   7
ATOM      7  O   UNL     1      -7.215 -10.443  16.310  0.00  0.00    +0.000 OA
ATOM      8  H   UNL     1      -6.844 -10.568  17.200  0.00  0.00    +0.000 HD
ENDBRANCH   1   7
BRANCH   1  10
ATOM      9  O   UNL     1      -8.311 -12.871  17.781  0.00  0.00    +0.000 OA
ATOM     10  C   UNL     1      -8.594 -12.365  16.695  0.00  0.00    +0.000 C 
BRANCH  10  11
ATOM     11  C   UNL     1     -10.018 -12.350  16.200  0.00  0.00    +0.000 C 
ATOM     12  H   UNL     1     -10.588 -13.145  16.685  0.00  0.00    +0.000 HD
ATOM     13  H   UNL     1     -10.030 -12.510  15.118  0.00  0.00    +0.000 HD
ATOM     14  H   UNL     1     -10.472 -11.377  16.409  0.00  0.00    +0.000 HD
ENDBRANCH  10  11
ENDBRANCH   1  10
TORSDOF 4
ENDMDL
MODEL 10
REMARK VINA RESULT:    -3.062     16.523     17.163
REMARK INTER + INTRA:          -3.509
REMARK INTER:                  -3.509
REMARK INTRA:                   0.000
REMARK UNBOUND:                 0.000
REMARK  Name = 179
REMARK  4 active torsions:
REMARK  status: ('A' for Active; 'I' for Inactive)
REMARK    1  A    between atoms: O_1  and  C_3
REMARK    2  A    between atoms: C_3  and  C_4
REMARK    3  A    between atoms: C_3  and  C_5
REMARK    4  A    between atoms: C_4  and  C_6
REMARK                            x       y       z     vdW  Elec       q    Type
REMARK                         _______ _______ _______ _____ _____    ______ ____
ROOT
ATOM      1  C   UNL     1     -21.688  -2.383   6.954  0.00  0.00    +0.000 C 
ATOM      2  H   UNL     1     -22.650  -2.347   6.432  0.00  0.00    +0.000 HD
ENDROOT
BRANCH   1   3
ATOM      3  C   UNL     1     -20.693  -3.235   6.186  0.00  0.00    +0.000 C 
ATOM      4  H   UNL     1     -19.688  -2.799   6.233  0.00  0.00    +0.000 HD
ATOM      5  H   UNL     1     -20.972  -3.334   5.133  0.00  0.00    +0.000 HD
ATOM      6  H   UNL     1     -20.626  -4.236   6.622  0.00  0.00    +0.000 HD
ENDBRANCH   1   3
BRANCH   1   7
ATOM      7  O   UNL     1     -21.894  -2.981   8.224  0.00  0.00    +0.000 OA
ATOM      8  H   UNL     1     -22.815  -3.290   8.254  0.00  0.00    +0.000 HD
ENDBRANCH   1   7
BRANCH   1  10
ATOM      9  O   UNL     1     -21.351  -0.340   8.194  0.00  0.00    +0.000 OA
ATOM     10  C   UNL     1     -21.174  -0.963   7.147  0.00  0.00    +0.000 C 
BRANCH  10  11
ATOM     11  C   UNL     1     -20.425  -0.340   5.997  0.00  0.00    +0.000 C 
ATOM     12  H   UNL     1     -21.121   0.189   5.344  0.00  0.00    +0.000 HD
ATOM     13  H   UNL     1     -19.921  -1.123   5.422  0.00  0.00    +0.000 HD
ATOM     14  H   UNL     1     -19.666   0.348   6.380  0.00  0.00    +0.000 HD
ENDBRANCH  10  11
ENDBRANCH   1  10
TORSDOF 4
ENDMDL
