MODEL 1
REMARK VINA RESULT:    -3.611      0.000      0.000
REMARK INTER + INTRA:          -4.370
REMARK INTER:                  -4.334
REMARK INTRA:                  -0.036
REMARK UNBOUND:                -0.020
REMARK  Name = 31260
REMARK  5 active torsions:
REMARK  status: ('A' for Active; 'I' for Inactive)
REMARK    1  A    between atoms: O_1  and  C_6
REMARK    2  A    between atoms: C_2  and  C_3
REMARK    3  A    between atoms: C_2  and  C_4
REMARK    4  A    between atoms: C_2  and  C_5
REMARK    5  A    between atoms: C_3  and  C_6
REMARK                            x       y       z     vdW  Elec       q    Type
REMARK                         _______ _______ _______ _____ _____    ______ ____
ROOT
ATOM      1  C   UNL     1      -3.345   7.583  -9.865  0.00  0.00    +0.000 C 
ATOM      2  H   UNL     1      -4.197   7.993 -10.420  0.00  0.00    +0.000 HD
ENDROOT
BRANCH   1   3
ATOM      3  C   UNL     1      -2.427   6.853 -10.849  0.00  0.00    +0.000 C 
ATOM      4  H   UNL     1      -1.920   6.023 -10.346  0.00  0.00    +0.000 HD
ATOM      5  H   UNL     1      -1.647   7.505 -11.256  0.00  0.00    +0.000 HD
ATOM      6  H   UNL     1      -2.998   6.433 -11.684  0.00  0.00    +0.000 HD
ENDBRANCH   1   3
BRANCH   1   7
ATOM      7  C   UNL     1      -3.878   6.594  -8.827  0.00  0.00    +0.000 C 
ATOM      8  H   UNL     1      -3.984   5.583  -9.233  0.00  0.00    +0.000 HD
ATOM      9  H   UNL     1      -4.864   6.910  -8.472  0.00  0.00    +0.000 HD
ATOM     10  H   UNL     1      -3.212   6.546  -7.960  0.00  0.00    +0.000 HD
ENDBRANCH   1   7
BRANCH   1  11
ATOM     11  C   UNL     1      -2.592   8.758  -9.221  0.00  0.00    +0.000 C 
ATOM     12  H   UNL     1      -1.727   8.377  -8.662  0.00  0.00    +0.000 HD
ATOM     13  H   UNL     1      -3.231   9.240  -8.470  0.00  0.00    +0.000 HD
BRANCH  11  14
ATOM     14  C   UNL     1      -2.124   9.808 -10.220  0.00  0.00    +0.000 C 
ATOM     15  H   UNL     1      -2.212   9.466 -11.255  0.00  0.00    +0.000 HD
ATOM     16  H   UNL     1      -2.673  10.747 -10.114  0.00  0.00    +0.000 HD
BRANCH  14  17
ATOM     17  O   UNL     1      -0.753  10.097  -9.971  0.00  0.00    +0.000 OA
ATOM     18  H   UNL     1      -0.283  10.044 -10.820  0.00  0.00    +0.000 HD
ENDBRANCH  14  17
ENDBRANCH  11  14
ENDBRANCH   1  11
TORSDOF 5
ENDMDL
MODEL 2
REMARK VINA RESULT:    -3.451     28.522     29.446
REMARK INTER + INTRA:          -4.177
REMARK INTER:                  -4.234
REMARK INTRA:                   0.056
REMARK UNBOUND:                -0.020
REMARK  Name = 31260
REMARK  5 active torsions:
REMARK  status: ('A' for Active; 'I' for Inactive)
REMARK    1  A    between atoms: O_1  and  C_6
REMARK    2  A    between atoms: C_2  and  C_3
REMARK    3  A    between atoms: C_2  and  C_4
REMARK    4  A    between atoms: C_2  and  C_5
REMARK    5  A    between atoms: C_3  and  C_6
REMARK                            x       y       z     vdW  Elec       q    Type
REMARK                         _______ _______ _______ _____ _____    ______ ____
ROOT
ATOM      1  C   UNL     1     -10.474   8.818  19.183  0.00  0.00    +0.000 C 
ATOM      2  H   UNL     1     -11.233   8.388  18.518  0.00  0.00    +0.000 HD
ENDROOT
BRANCH   1   3
ATOM      3  C   UNL     1      -9.703   7.674  19.846  0.00  0.00    +0.000 C 
ATOM      4  H   UNL     1      -9.758   6.774  19.225  0.00  0.00    +0.000 HD
ATOM      5  H   UNL     1     -10.109   7.410  20.828  0.00  0.00    +0.000 HD
ATOM      6  H   UNL     1      -8.644   7.928  19.965  0.00  0.00    +0.000 HD
ENDBRANCH   1   3
BRANCH   1   7
ATOM      7  C   UNL     1     -11.187   9.648  20.252  0.00  0.00    +0.000 C 
ATOM      8  H   UNL     1     -11.880  10.375  19.819  0.00  0.00    +0.000 HD
ATOM      9  H   UNL     1     -10.458  10.206  20.849  0.00  0.00    +0.000 HD
ATOM     10  H   UNL     1     -11.750   9.002  20.934  0.00  0.00    +0.000 HD
ENDBRANCH   1   7
BRANCH   1  11
ATOM     11  C   UNL     1      -9.520   9.663  18.326  0.00  0.00    +0.000 C 
ATOM     12  H   UNL     1      -8.686  10.017  18.945  0.00  0.00    +0.000 HD
ATOM     13  H   UNL     1     -10.034  10.573  17.988  0.00  0.00    +0.000 HD
BRANCH  11  14
ATOM     14  C   UNL     1      -8.970   8.926  17.111  0.00  0.00    +0.000 C 
ATOM     15  H   UNL     1      -9.571   8.051  16.848  0.00  0.00    +0.000 HD
ATOM     16  H   UNL     1      -8.897   9.576  16.236  0.00  0.00    +0.000 HD
BRANCH  14  17
ATOM     17  O   UNL     1      -7.653   8.478  17.407  0.00  0.00    +0.000 OA
ATOM     18  H   UNL     1      -7.126   9.257  17.655  0.00  0.00    +0.000 HD
ENDBRANCH  14  17
ENDBRANCH  11  14
ENDBRANCH   1  11
TORSDOF 5
ENDMDL
MODEL 3
REMARK VINA RESULT:    -3.359     11.546     12.206
REMARK INTER + INTRA:          -4.066
REMARK INTER:                  -4.025
REMARK INTRA:                  -0.041
REMARK UNBOUND:                -0.020
REMARK  Name = 31260
REMARK  5 active torsions:
REMARK  status: ('A' for Active; 'I' for Inactive)
REMARK    1  A    between atoms: O_1  and  C_6
REMARK    2  A    between atoms: C_2  and  C_3
REMARK    3  A    between atoms: C_2  and  C_4
REMARK    4  A    between atoms: C_2  and  C_5
REMARK    5  A    between atoms: C_3  and  C_6
REMARK                            x       y       z     vdW  Elec       q    Type
REMARK                         _______ _______ _______ _____ _____    ______ ____
ROOT
ATOM      1  C   UNL     1       3.849  10.992  -0.058  0.00  0.00    +0.000 C 
ATOM      2  H   UNL     1       3.204  11.457   0.697  0.00  0.00    +0.000 HD
ENDROOT
BRANCH   1   3
ATOM      3  C   UNL     1       3.242  11.246  -1.440  0.00  0.00    +0.000 C 
ATOM      4  H   UNL     1       3.470  10.410  -2.110  0.00  0.00    +0.000 HD
ATOM      5  H   UNL     1       3.637  12.151  -1.911  0.00  0.00    +0.000 HD
ATOM      6  H   UNL     1       2.151  11.333  -1.383  0.00  0.00    +0.000 HD
ENDBRANCH   1   3
BRANCH   1   7
ATOM      7  C   UNL     1       3.902   9.488   0.214  0.00  0.00    +0.000 C 
ATOM      8  H   UNL     1       3.267   9.196   1.056  0.00  0.00    +0.000 HD
ATOM      9  H   UNL     1       4.925   9.180   0.453  0.00  0.00    +0.000 HD
ATOM     10  H   UNL     1       3.582   8.923  -0.668  0.00  0.00    +0.000 HD
ENDBRANCH   1   7
BRANCH   1  11
ATOM     11  C   UNL     1       5.234  11.652   0.033  0.00  0.00    +0.000 C 
ATOM     12  H   UNL     1       5.469  11.867   1.083  0.00  0.00    +0.000 HD
ATOM     13  H   UNL     1       5.211  12.631  -0.464  0.00  0.00    +0.000 HD
BRANCH  11  14
ATOM     14  C   UNL     1       6.354  10.817  -0.575  0.00  0.00    +0.000 C 
ATOM     15  H   UNL     1       7.262  10.834   0.033  0.00  0.00    +0.000 HD
ATOM     16  H   UNL     1       6.053   9.777  -0.726  0.00  0.00    +0.000 HD
BRANCH  14  17
ATOM     17  O   UNL     1       6.676  11.347  -1.855  0.00  0.00    +0.000 OA
ATOM     18  H   UNL     1       7.133  12.194  -1.715  0.00  0.00    +0.000 HD
ENDBRANCH  14  17
ENDBRANCH  11  14
ENDBRANCH   1  11
TORSDOF 5
ENDMDL
MODEL 4
REMARK VINA RESULT:    -3.292      2.000      2.982
REMARK INTER + INTRA:          -3.986
REMARK INTER:                  -3.947
REMARK INTRA:                  -0.039
REMARK UNBOUND:                -0.020
REMARK  Name = 31260
REMARK  5 active torsions:
REMARK  status: ('A' for Active; 'I' for Inactive)
REMARK    1  A    between atoms: O_1  and  C_6
REMARK    2  A    between atoms: C_2  and  C_3
REMARK    3  A    between atoms: C_2  and  C_4
REMARK    4  A    between atoms: C_2  and  C_5
REMARK    5  A    between atoms: C_3  and  C_6
REMARK                            x       y       z     vdW  Elec       q    Type
REMARK                         _______ _______ _______ _____ _____    ______ ____
ROOT
ATOM      1  C   UNL     1      -2.078   8.994  -9.847  0.00  0.00    +0.000 C 
ATOM      2  H   UNL     1      -1.371   8.315  -9.354  0.00  0.00    +0.000 HD
ENDROOT
BRANCH   1   3
ATOM      3  C   UNL     1      -1.281  10.074 -10.582  0.00  0.00    +0.000 C 
ATOM      4  H   UNL     1      -0.219   9.806 -10.609  0.00  0.00    +0.000 HD
ATOM      5  H   UNL     1      -1.351  11.051 -10.094  0.00  0.00    +0.000 HD
ATOM      6  H   UNL     1      -1.620  10.179 -11.619  0.00  0.00    +0.000 HD
ENDBRANCH   1   3
BRANCH   1   7
ATOM      7  C   UNL     1      -2.954   9.640  -8.773  0.00  0.00    +0.000 C 
ATOM      8  H   UNL     1      -3.471   8.898  -8.158  0.00  0.00    +0.000 HD
ATOM      9  H   UNL     1      -3.719  10.273  -9.235  0.00  0.00    +0.000 HD
ATOM     10  H   UNL     1      -2.353  10.274  -8.112  0.00  0.00    +0.000 HD
ENDBRANCH   1   7
BRANCH   1  11
ATOM     11  C   UNL     1      -2.897   8.173 -10.855  0.00  0.00    +0.000 C 
ATOM     12  H   UNL     1      -2.818   8.629 -11.850  0.00  0.00    +0.000 HD
ATOM     13  H   UNL     1      -3.963   8.228 -10.597  0.00  0.00    +0.000 HD
BRANCH  11  14
ATOM     14  C   UNL     1      -2.483   6.709 -10.935  0.00  0.00    +0.000 C 
ATOM     15  H   UNL     1      -2.448   6.232  -9.951  0.00  0.00    +0.000 HD
ATOM     16  H   UNL     1      -3.148   6.130 -11.580  0.00  0.00    +0.000 HD
BRANCH  14  17
ATOM     17  O   UNL     1      -1.181   6.633 -11.502  0.00  0.00    +0.000 OA
ATOM     18  H   UNL     1      -0.752   7.496 -11.370  0.00  0.00    +0.000 HD
ENDBRANCH  14  17
ENDBRANCH  11  14
ENDBRANCH   1  11
TORSDOF 5
ENDMDL
MODEL 5
REMARK VINA RESULT:    -3.262     25.780     27.208
REMARK INTER + INTRA:          -3.950
REMARK INTER:                  -3.945
REMARK INTRA:                  -0.005
REMARK UNBOUND:                -0.020
REMARK  Name = 31260
REMARK  5 active torsions:
REMARK  status: ('A' for Active; 'I' for Inactive)
REMARK    1  A    between atoms: O_1  and  C_6
REMARK    2  A    between atoms: C_2  and  C_3
REMARK    3  A    between atoms: C_2  and  C_4
REMARK    4  A    between atoms: C_2  and  C_5
REMARK    5  A    between atoms: C_3  and  C_6
REMARK                            x       y       z     vdW  Elec       q    Type
REMARK                         _______ _______ _______ _____ _____    ______ ____
ROOT
ATOM      1  C   UNL     1     -21.177  -1.134   6.286  0.00  0.00    +0.000 C 
ATOM      2  H   UNL     1     -22.227  -1.048   5.981  0.00  0.00    +0.000 HD
ENDROOT
BRANCH   1   3
ATOM      3  C   UNL     1     -20.347  -0.149   5.460  0.00  0.00    +0.000 C 
ATOM      4  H   UNL     1     -20.144  -0.567   4.468  0.00  0.00    +0.000 HD
ATOM      5  H   UNL     1     -19.378   0.070   5.919  0.00  0.00    +0.000 HD
ATOM      6  H   UNL     1     -20.884   0.795   5.314  0.00  0.00    +0.000 HD
ENDBRANCH   1   3
BRANCH   1   7
ATOM      7  C   UNL     1     -20.710  -2.564   6.005  0.00  0.00    +0.000 C 
ATOM      8  H   UNL     1     -19.763  -2.591   5.457  0.00  0.00    +0.000 HD
ATOM      9  H   UNL     1     -21.453  -3.094   5.400  0.00  0.00    +0.000 HD
ATOM     10  H   UNL     1     -20.581  -3.120   6.939  0.00  0.00    +0.000 HD
ENDBRANCH   1   7
BRANCH   1  11
ATOM     11  C   UNL     1     -21.087  -0.772   7.777  0.00  0.00    +0.000 C 
ATOM     12  H   UNL     1     -20.923   0.308   7.882  0.00  0.00    +0.000 HD
ATOM     13  H   UNL     1     -20.199  -1.243   8.219  0.00  0.00    +0.000 HD
BRANCH  11  14
ATOM     14  C   UNL     1     -22.314  -1.178   8.582  0.00  0.00    +0.000 C 
ATOM     15  H   UNL     1     -23.140  -1.505   7.945  0.00  0.00    +0.000 HD
ATOM     16  H   UNL     1     -22.089  -1.971   9.299  0.00  0.00    +0.000 HD
BRANCH  14  17
ATOM     17  O   UNL     1     -22.760  -0.054   9.332  0.00  0.00    +0.000 OA
ATOM     18  H   UNL     1     -22.184   0.697   9.107  0.00  0.00    +0.000 HD
ENDBRANCH  14  17
ENDBRANCH  11  14
ENDBRANCH   1  11
TORSDOF 5
ENDMDL
MODEL 6
REMARK VINA RESULT:    -3.261      7.624      8.294
REMARK INTER + INTRA:          -3.948
REMARK INTER:                  -3.914
REMARK INTRA:                  -0.034
REMARK UNBOUND:                -0.020
REMARK  Name = 31260
REMARK  5 active torsions:
REMARK  status: ('A' for Active; 'I' for Inactive)
REMARK    1  A    between atoms: O_1  and  C_6
REMARK    2  A    between atoms: C_2  and  C_3
REMARK    3  A    between atoms: C_2  and  C_4
REMARK    4  A    between atoms: C_2  and  C_5
REMARK    5  A    between atoms: C_3  and  C_6
REMARK                            x       y       z     vdW  Elec       q    Type
REMARK                         _______ _______ _______ _____ _____    ______ ____
ROOT
ATOM      1  C   UNL     1      -8.461   4.150  -5.792  0.00  0.00    +0.000 C 
ATOM      2  H   UNL     1      -7.380   4.330  -5.754  0.00  0.00    +0.000 HD
ENDROOT
BRANCH   1   3
ATOM      3  C   UNL     1      -8.847   3.254  -4.613  0.00  0.00    +0.000 C 
ATOM      4  H   UNL     1      -9.620   3.741  -4.008  0.00  0.00    +0.000 HD
ATOM      5  H   UNL     1      -8.002   3.049  -3.949  0.00  0.00    +0.000 HD
ATOM      6  H   UNL     1      -9.256   2.298  -4.960  0.00  0.00    +0.000 HD
ENDBRANCH   1   3
BRANCH   1   7
ATOM      7  C   UNL     1      -8.785   3.440  -7.108  0.00  0.00    +0.000 C 
ATOM      8  H   UNL     1      -8.626   2.359  -7.045  0.00  0.00    +0.000 HD
ATOM      9  H   UNL     1      -8.146   3.819  -7.912  0.00  0.00    +0.000 HD
ATOM     10  H   UNL     1      -9.826   3.616  -7.398  0.00  0.00    +0.000 HD
ENDBRANCH   1   7
BRANCH   1  11
ATOM     11  C   UNL     1      -9.170   5.508  -5.671  0.00  0.00    +0.000 C 
ATOM     12  H   UNL     1      -9.893   5.471  -4.845  0.00  0.00    +0.000 HD
ATOM     13  H   UNL     1      -9.770   5.694  -6.572  0.00  0.00    +0.000 HD
BRANCH  11  14
ATOM     14  C   UNL     1      -8.220   6.680  -5.458  0.00  0.00    +0.000 C 
ATOM     15  H   UNL     1      -7.464   6.750  -6.246  0.00  0.00    +0.000 HD
ATOM     16  H   UNL     1      -8.752   7.632  -5.397  0.00  0.00    +0.000 HD
BRANCH  14  17
ATOM     17  O   UNL     1      -7.543   6.499  -4.220  0.00  0.00    +0.000 OA
ATOM     18  H   UNL     1      -8.207   6.248  -3.556  0.00  0.00    +0.000 HD
ENDBRANCH  14  17
ENDBRANCH  11  14
ENDBRANCH   1  11
TORSDOF 5
ENDMDL
MODEL 7
REMARK VINA RESULT:    -3.235     25.634     26.332
REMARK INTER + INTRA:          -3.917
REMARK INTER:                  -3.874
REMARK INTRA:                  -0.043
REMARK UNBOUND:                -0.020
REMARK  Name = 31260
REMARK  5 active torsions:
REMARK  status: ('A' for Active; 'I' for Inactive)
REMARK    1  A    between atoms: O_1  and  C_6
REMARK    2  A    between atoms: C_2  and  C_3
REMARK    3  A    between atoms: C_2  and  C_4
REMARK    4  A    between atoms: C_2  and  C_5
REMARK    5  A    between atoms: C_3  and  C_6
REMARK                            x       y       z     vdW  Elec       q    Type
REMARK                         _______ _______ _______ _____ _____    ______ ____
ROOT
ATOM      1  C   UNL     1     -20.878  -4.180   4.808  0.00  0.00    +0.000 C 
ATOM      2  H   UNL     1     -20.860  -4.825   5.695  0.00  0.00    +0.000 HD
ENDROOT
BRANCH   1   3
ATOM      3  C   UNL     1     -20.845  -2.720   5.267  0.00  0.00    +0.000 C 
ATOM      4  H   UNL     1     -19.886  -2.263   4.999  0.00  0.00    +0.000 HD
ATOM      5  H   UNL     1     -20.956  -2.620   6.351  0.00  0.00    +0.000 HD
ATOM      6  H   UNL     1     -21.634  -2.135   4.781  0.00  0.00    +0.000 HD
ENDBRANCH   1   3
BRANCH   1   7
ATOM      7  C   UNL     1     -22.174  -4.451   4.042  0.00  0.00    +0.000 C 
ATOM      8  H   UNL     1     -22.729  -3.532   3.827  0.00  0.00    +0.000 HD
ATOM      9  H   UNL     1     -22.832  -5.102   4.626  0.00  0.00    +0.000 HD
ATOM     10  H   UNL     1     -21.965  -4.954   3.092  0.00  0.00    +0.000 HD
ENDBRANCH   1   7
BRANCH   1  11
ATOM     11  C   UNL     1     -19.627  -4.493   3.971  0.00  0.00    +0.000 C 
ATOM     12  H   UNL     1     -18.943  -3.635   4.000  0.00  0.00    +0.000 HD
ATOM     13  H   UNL     1     -19.907  -4.604   2.915  0.00  0.00    +0.000 HD
BRANCH  11  14
ATOM     14  C   UNL     1     -18.886  -5.746   4.420  0.00  0.00    +0.000 C 
ATOM     15  H   UNL     1     -19.507  -6.644   4.351  0.00  0.00    +0.000 HD
ATOM     16  H   UNL     1     -17.971  -5.908   3.847  0.00  0.00    +0.000 HD
BRANCH  14  17
ATOM     17  O   UNL     1     -18.502  -5.586   5.781  0.00  0.00    +0.000 OA
ATOM     18  H   UNL     1     -17.789  -4.926   5.809  0.00  0.00    +0.000 HD
ENDBRANCH  14  17
ENDBRANCH  11  14
ENDBRANCH   1  11
TORSDOF 5
ENDMDL
MODEL 8
REMARK VINA RESULT:    -3.232     25.513     25.972
REMARK INTER + INTRA:          -3.914
REMARK INTER:                  -3.902
REMARK INTRA:                  -0.012
REMARK UNBOUND:                -0.020
REMARK  Name = 31260
REMARK  5 active torsions:
REMARK  status: ('A' for Active; 'I' for Inactive)
REMARK    1  A    between atoms: O_1  and  C_6
REMARK    2  A    between atoms: C_2  and  C_3
REMARK    3  A    between atoms: C_2  and  C_4
REMARK    4  A    between atoms: C_2  and  C_5
REMARK    5  A    between atoms: C_3  and  C_6
REMARK                            x       y       z     vdW  Elec       q    Type
REMARK                         _______ _______ _______ _____ _____    ______ ____
ROOT
ATOM      1  C   UNL     1      12.964  -3.875   6.349  0.00  0.00    +0.000 C 
ATOM      2  H   UNL     1      12.701  -4.046   5.297  0.00  0.00    +0.000 HD
ENDROOT
BRANCH   1   3
ATOM      3  C   UNL     1      12.333  -4.983   7.195  0.00  0.00    +0.000 C 
ATOM      4  H   UNL     1      12.664  -5.964   6.836  0.00  0.00    +0.000 HD
ATOM      5  H   UNL     1      11.240  -4.977   7.145  0.00  0.00    +0.000 HD
ATOM      6  H   UNL     1      12.633  -4.899   8.245  0.00  0.00    +0.000 HD
ENDBRANCH   1   3
BRANCH   1   7
ATOM      7  C   UNL     1      12.399  -2.518   6.772  0.00  0.00    +0.000 C 
ATOM      8  H   UNL     1      13.174  -1.749   6.840  0.00  0.00    +0.000 HD
ATOM      9  H   UNL     1      11.924  -2.593   7.756  0.00  0.00    +0.000 HD
ATOM     10  H   UNL     1      11.640  -2.176   6.061  0.00  0.00    +0.000 HD
ENDBRANCH   1   7
BRANCH   1  11
ATOM     11  C   UNL     1      14.495  -3.934   6.468  0.00  0.00    +0.000 C 
ATOM     12  H   UNL     1      14.772  -4.582   7.309  0.00  0.00    +0.000 HD
ATOM     13  H   UNL     1      14.884  -2.941   6.729  0.00  0.00    +0.000 HD
BRANCH  11  14
ATOM     14  C   UNL     1      15.191  -4.421   5.203  0.00  0.00    +0.000 C 
ATOM     15  H   UNL     1      15.884  -5.243   5.400  0.00  0.00    +0.000 HD
ATOM     16  H   UNL     1      14.477  -4.740   4.441  0.00  0.00    +0.000 HD
BRANCH  14  17
ATOM     17  O   UNL     1      15.937  -3.344   4.650  0.00  0.00    +0.000 OA
ATOM     18  H   UNL     1      15.776  -2.560   5.202  0.00  0.00    +0.000 HD
ENDBRANCH  14  17
ENDBRANCH  11  14
ENDBRANCH   1  11
TORSDOF 5
ENDMDL
MODEL 9
REMARK VINA RESULT:    -3.096     32.353     33.008
REMARK INTER + INTRA:          -3.749
REMARK INTER:                  -3.729
REMARK INTRA:                  -0.020
REMARK UNBOUND:                -0.020
REMARK  Name = 31260
REMARK  5 active torsions:
REMARK  status: ('A' for Active; 'I' for Inactive)
REMARK    1  A    between atoms: O_1  and  C_6
REMARK    2  A    between atoms: C_2  and  C_3
REMARK    3  A    between atoms: C_2  and  C_4
REMARK    4  A    between atoms: C_2  and  C_5
REMARK    5  A    between atoms: C_3  and  C_6
REMARK                            x       y       z     vdW  Elec       q    Type
REMARK                         _______ _______ _______ _____ _____    ______ ____
ROOT
ATOM      1  C   UNL     1      -9.917 -11.315  16.187  0.00  0.00    +0.000 C 
ATOM      2  H   UNL     1      -9.463 -11.174  17.176  0.00  0.00    +0.000 HD
ENDROOT
BRANCH   1   3
ATOM      3  C   UNL     1     -10.920 -10.185  15.946  0.00  0.00    +0.000 C 
ATOM      4  H   UNL     1     -11.551 -10.047  16.830  0.00  0.00    +0.000 HD
ATOM      5  H   UNL     1     -11.588 -10.391  15.104  0.00  0.00    +0.000 HD
ATOM      6  H   UNL     1     -10.407  -9.235  15.758  0.00  0.00    +0.000 HD
ENDBRANCH   1   3
BRANCH   1   7
ATOM      7  C   UNL     1     -10.645 -12.661  16.179  0.00  0.00    +0.000 C 
ATOM      8  H   UNL     1     -11.042 -12.912  15.191  0.00  0.00    +0.000 HD
ATOM      9  H   UNL     1     -11.490 -12.640  16.876  0.00  0.00    +0.000 HD
ATOM     10  H   UNL     1      -9.974 -13.466  16.493  0.00  0.00    +0.000 HD
ENDBRANCH   1   7
BRANCH   1  11
ATOM     11  C   UNL     1      -8.795 -11.251  15.139  0.00  0.00    +0.000 C 
ATOM     12  H   UNL     1      -8.777 -10.253  14.682  0.00  0.00    +0.000 HD
ATOM     13  H   UNL     1      -9.018 -11.942  14.315  0.00  0.00    +0.000 HD
BRANCH  11  14
ATOM     14  C   UNL     1      -7.415 -11.577  15.697  0.00  0.00    +0.000 C 
ATOM     15  H   UNL     1      -7.450 -12.350  16.469  0.00  0.00    +0.000 HD
ATOM     16  H   UNL     1      -6.722 -11.894  14.914  0.00  0.00    +0.000 HD
BRANCH  14  17
ATOM     17  O   UNL     1      -6.871 -10.400  16.283  0.00  0.00    +0.000 OA
ATOM     18  H   UNL     1      -5.908 -10.521  16.344  0.00  0.00    +0.000 HD
ENDBRANCH  14  17
ENDBRANCH  11  14
ENDBRANCH   1  11
TORSDOF 5
ENDMDL
MODEL 10
REMARK VINA RESULT:    -3.093     16.659     17.390
REMARK INTER + INTRA:          -3.745
REMARK INTER:                  -3.725
REMARK INTRA:                  -0.020
REMARK UNBOUND:                -0.020
REMARK  Name = 31260
REMARK  5 active torsions:
REMARK  status: ('A' for Active; 'I' for Inactive)
REMARK    1  A    between atoms: O_1  and  C_6
REMARK    2  A    between atoms: C_2  and  C_3
REMARK    3  A    between atoms: C_2  and  C_4
REMARK    4  A    between atoms: C_2  and  C_5
REMARK    5  A    between atoms: C_3  and  C_6
REMARK                            x       y       z     vdW  Elec       q    Type
REMARK                         _______ _______ _______ _____ _____    ______ ____
ROOT
ATOM      1  C   UNL     1      -7.525  12.544   5.280  0.00  0.00    +0.000 C 
ATOM      2  H   UNL     1      -8.370  13.109   4.868  0.00  0.00    +0.000 HD
ENDROOT
BRANCH   1   3
ATOM      3  C   UNL     1      -6.281  13.435   5.243  0.00  0.00    +0.000 C 
ATOM      4  H   UNL     1      -6.311  14.086   4.363  0.00  0.00    +0.000 HD
ATOM      5  H   UNL     1      -5.353  12.856   5.181  0.00  0.00    +0.000 HD
ATOM      6  H   UNL     1      -6.229  14.080   6.127  0.00  0.00    +0.000 HD
ENDBRANCH   1   3
BRANCH   1   7
ATOM      7  C   UNL     1      -7.300  11.308   4.408  0.00  0.00    +0.000 C 
ATOM      8  H   UNL     1      -6.493  10.674   4.788  0.00  0.00    +0.000 HD
ATOM      9  H   UNL     1      -7.032  11.605   3.389  0.00  0.00    +0.000 HD
ATOM     10  H   UNL     1      -8.212  10.704   4.350  0.00  0.00    +0.000 HD
ENDBRANCH   1   7
BRANCH   1  11
ATOM     11  C   UNL     1      -7.864  12.181   6.734  0.00  0.00    +0.000 C 
ATOM     12  H   UNL     1      -8.453  12.990   7.186  0.00  0.00    +0.000 HD
ATOM     13  H   UNL     1      -6.941  12.130   7.328  0.00  0.00    +0.000 HD
BRANCH  11  14
ATOM     14  C   UNL     1      -8.618  10.865   6.879  0.00  0.00    +0.000 C 
ATOM     15  H   UNL     1      -9.699  10.992   6.781  0.00  0.00    +0.000 HD
ATOM     16  H   UNL     1      -8.285  10.121   6.151  0.00  0.00    +0.000 HD
BRANCH  14  17
ATOM     17  O   UNL     1      -8.357  10.329   8.170  0.00  0.00    +0.000 OA
ATOM     18  H   UNL     1      -9.195   9.981   8.519  0.00  0.00    +0.000 HD
ENDBRANCH  14  17
ENDBRANCH  11  14
ENDBRANCH   1  11
TORSDOF 5
ENDMDL
