MODEL 1
REMARK VINA RESULT:    -4.613      0.000      0.000
REMARK INTER + INTRA:          -6.843
REMARK INTER:                  -6.305
REMARK INTRA:                  -0.539
REMARK UNBOUND:                -0.342
REMARK  Name = 61235
REMARK  8 active torsions:
REMARK  status: ('A' for Active; 'I' for Inactive)
REMARK    1  A    between atoms: C_2  and  C_3
REMARK    2  A    between atoms: C_2  and  C_4
REMARK    3  A    between atoms: C_3  and  C_5
REMARK    4  A    between atoms: C_4  and  C_6
REMARK    5  A    between atoms: C_5  and  C_7
REMARK    6  A    between atoms: C_6  and  C_8
REMARK    7  A    between atoms: C_7  and  C_9
REMARK    8  A    between atoms: C_9  and  C_10
REMARK                            x       y       z     vdW  Elec       q    Type
REMARK                         _______ _______ _______ _____ _____    ______ ____
ROOT
ATOM      1  C   UNL     1       5.577   9.012   1.769  0.00  0.00    +0.000 C 
ATOM      2  H   UNL     1       6.098   9.977   1.742  0.00  0.00    +0.000 HD
ATOM      3  H   UNL     1       5.397   8.783   2.827  0.00  0.00    +0.000 HD
ENDROOT
BRANCH   1   4
ATOM      4  C   UNL     1       6.471   7.927   1.159  0.00  0.00    +0.000 C 
ATOM      5  H   UNL     1       5.904   6.994   1.065  0.00  0.00    +0.000 HD
ATOM      6  H   UNL     1       7.314   7.728   1.832  0.00  0.00    +0.000 HD
BRANCH   4   7
ATOM      7  C   UNL     1       6.999   8.351  -0.213  0.00  0.00    +0.000 C 
ATOM      8  H   UNL     1       7.494   7.500  -0.697  0.00  0.00    +0.000 HD
ATOM      9  H   UNL     1       6.159   8.644  -0.855  0.00  0.00    +0.000 HD
BRANCH   7  10
ATOM     10  C   UNL     1       7.980   9.517  -0.094  0.00  0.00    +0.000 C 
ATOM     11  H   UNL     1       7.720  10.136   0.773  0.00  0.00    +0.000 HD
ATOM     12  H   UNL     1       8.994   9.135   0.070  0.00  0.00    +0.000 HD
BRANCH  10  13
ATOM     13  C   UNL     1       7.968  10.385  -1.343  0.00  0.00    +0.000 C 
ATOM     14  H   UNL     1       8.197   9.780  -2.226  0.00  0.00    +0.000 HD
ATOM     15  H   UNL     1       6.985  10.844  -1.492  0.00  0.00    +0.000 HD
ATOM     16  H   UNL     1       8.714  11.183  -1.274  0.00  0.00    +0.000 HD
ENDBRANCH  10  13
ENDBRANCH   7  10
ENDBRANCH   4   7
ENDBRANCH   1   4
BRANCH   1  17
ATOM     17  C   UNL     1       4.238   9.136   1.045  0.00  0.00    +0.000 C 
ATOM     18  H   UNL     1       4.253   8.530   0.132  0.00  0.00    +0.000 HD
ATOM     19  H   UNL     1       3.436   8.765   1.693  0.00  0.00    +0.000 HD
BRANCH  17  21
ATOM     20  O   UNL     1       3.255  11.314   1.393  0.00  0.00    +0.000 OA
ATOM     21  C   UNL     1       3.882  10.562   0.649  0.00  0.00    +0.000 C 
BRANCH  21  22
ATOM     22  C   UNL     1       4.320  10.983  -0.744  0.00  0.00    +0.000 C 
ATOM     23  H   UNL     1       4.968  10.200  -1.151  0.00  0.00    +0.000 HD
ATOM     24  H   UNL     1       4.902  11.907  -0.654  0.00  0.00    +0.000 HD
BRANCH  22  25
ATOM     25  C   UNL     1       3.150  11.213  -1.683  0.00  0.00    +0.000 C 
ATOM     26  H   UNL     1       2.230  11.412  -1.124  0.00  0.00    +0.000 HD
ATOM     27  H   UNL     1       2.986  10.333  -2.311  0.00  0.00    +0.000 HD
ATOM     28  H   UNL     1       3.335  12.072  -2.339  0.00  0.00    +0.000 HD
ENDBRANCH  22  25
ENDBRANCH  21  22
ENDBRANCH  17  21
ENDBRANCH   1  17
TORSDOF 8
ENDMDL
MODEL 2
REMARK VINA RESULT:    -4.407     12.711     14.056
REMARK INTER + INTRA:          -6.552
REMARK INTER:                  -6.110
REMARK INTRA:                  -0.442
REMARK UNBOUND:                -0.342
REMARK  Name = 61235
REMARK  8 active torsions:
REMARK  status: ('A' for Active; 'I' for Inactive)
REMARK    1  A    between atoms: C_2  and  C_3
REMARK    2  A    between atoms: C_2  and  C_4
REMARK    3  A    between atoms: C_3  and  C_5
REMARK    4  A    between atoms: C_4  and  C_6
REMARK    5  A    between atoms: C_5  and  C_7
REMARK    6  A    between atoms: C_6  and  C_8
REMARK    7  A    between atoms: C_7  and  C_9
REMARK    8  A    between atoms: C_9  and  C_10
REMARK                            x       y       z     vdW  Elec       q    Type
REMARK                         _______ _______ _______ _____ _____    ______ ____
ROOT
ATOM      1  C   UNL     1      -2.586   9.344 -10.646  0.00  0.00    +0.000 C 
ATOM      2  H   UNL     1      -3.346   9.894 -11.216  0.00  0.00    +0.000 HD
ATOM      3  H   UNL     1      -2.784   8.277 -10.811  0.00  0.00    +0.000 HD
ENDROOT
BRANCH   1   4
ATOM      4  C   UNL     1      -2.729   9.663  -9.155  0.00  0.00    +0.000 C 
ATOM      5  H   UNL     1      -3.478  10.452  -9.018  0.00  0.00    +0.000 HD
ATOM      6  H   UNL     1      -1.777  10.049  -8.771  0.00  0.00    +0.000 HD
BRANCH   4   7
ATOM      7  C   UNL     1      -3.137   8.420  -8.360  0.00  0.00    +0.000 C 
ATOM      8  H   UNL     1      -2.371   8.197  -7.607  0.00  0.00    +0.000 HD
ATOM      9  H   UNL     1      -4.071   8.620  -7.820  0.00  0.00    +0.000 HD
BRANCH   7  10
ATOM     10  C   UNL     1      -3.326   7.212  -9.276  0.00  0.00    +0.000 C 
ATOM     11  H   UNL     1      -3.440   7.545 -10.314  0.00  0.00    +0.000 HD
ATOM     12  H   UNL     1      -2.438   6.572  -9.235  0.00  0.00    +0.000 HD
BRANCH  10  13
ATOM     13  C   UNL     1      -4.548   6.398  -8.879  0.00  0.00    +0.000 C 
ATOM     14  H   UNL     1      -4.434   6.014  -7.861  0.00  0.00    +0.000 HD
ATOM     15  H   UNL     1      -5.455   7.012  -8.911  0.00  0.00    +0.000 HD
ATOM     16  H   UNL     1      -4.687   5.545  -9.551  0.00  0.00    +0.000 HD
ENDBRANCH  10  13
ENDBRANCH   7  10
ENDBRANCH   4   7
ENDBRANCH   1   4
BRANCH   1  17
ATOM     17  C   UNL     1      -1.199   9.689 -11.184  0.00  0.00    +0.000 C 
ATOM     18  H   UNL     1      -1.223  10.672 -11.668  0.00  0.00    +0.000 HD
ATOM     19  H   UNL     1      -0.484   9.730 -10.354  0.00  0.00    +0.000 HD
BRANCH  17  21
ATOM     20  O   UNL     1       0.107   9.011 -13.098  0.00  0.00    +0.000 OA
ATOM     21  C   UNL     1      -0.665   8.687 -12.198  0.00  0.00    +0.000 C 
BRANCH  21  22
ATOM     22  C   UNL     1      -1.180   7.265 -12.047  0.00  0.00    +0.000 C 
ATOM     23  H   UNL     1      -1.764   7.208 -11.123  0.00  0.00    +0.000 HD
ATOM     24  H   UNL     1      -0.316   6.597 -11.956  0.00  0.00    +0.000 HD
BRANCH  22  25
ATOM     25  C   UNL     1      -2.039   6.824 -13.218  0.00  0.00    +0.000 C 
ATOM     26  H   UNL     1      -1.443   6.737 -14.132  0.00  0.00    +0.000 HD
ATOM     27  H   UNL     1      -2.840   7.548 -13.398  0.00  0.00    +0.000 HD
ATOM     28  H   UNL     1      -2.497   5.848 -13.024  0.00  0.00    +0.000 HD
ENDBRANCH  22  25
ENDBRANCH  21  22
ENDBRANCH  17  21
ENDBRANCH   1  17
TORSDOF 8
ENDMDL
MODEL 3
REMARK VINA RESULT:    -4.374     28.585     29.377
REMARK INTER + INTRA:          -6.506
REMARK INTER:                  -6.187
REMARK INTRA:                  -0.319
REMARK UNBOUND:                -0.342
REMARK  Name = 61235
REMARK  8 active torsions:
REMARK  status: ('A' for Active; 'I' for Inactive)
REMARK    1  A    between atoms: C_2  and  C_3
REMARK    2  A    between atoms: C_2  and  C_4
REMARK    3  A    between atoms: C_3  and  C_5
REMARK    4  A    between atoms: C_4  and  C_6
REMARK    5  A    between atoms: C_5  and  C_7
REMARK    6  A    between atoms: C_6  and  C_8
REMARK    7  A    between atoms: C_7  and  C_9
REMARK    8  A    between atoms: C_9  and  C_10
REMARK                            x       y       z     vdW  Elec       q    Type
REMARK                         _______ _______ _______ _____ _____    ______ ____
ROOT
ATOM      1  C   UNL     1     -20.806  -2.947   4.233  0.00  0.00    +0.000 C 
ATOM      2  H   UNL     1     -19.893  -2.496   3.825  0.00  0.00    +0.000 HD
ATOM      3  H   UNL     1     -21.443  -3.195   3.375  0.00  0.00    +0.000 HD
ENDROOT
BRANCH   1   4
ATOM      4  C   UNL     1     -21.527  -1.933   5.126  0.00  0.00    +0.000 C 
ATOM      5  H   UNL     1     -21.858  -2.426   6.049  0.00  0.00    +0.000 HD
ATOM      6  H   UNL     1     -22.426  -1.569   4.613  0.00  0.00    +0.000 HD
BRANCH   4   7
ATOM      7  C   UNL     1     -20.618  -0.752   5.469  0.00  0.00    +0.000 C 
ATOM      8  H   UNL     1     -19.791  -0.702   4.751  0.00  0.00    +0.000 HD
ATOM      9  H   UNL     1     -21.182   0.185   5.376  0.00  0.00    +0.000 HD
BRANCH   7  10
ATOM     10  C   UNL     1     -20.061  -0.872   6.887  0.00  0.00    +0.000 C 
ATOM     11  H   UNL     1     -19.520  -1.820   6.996  0.00  0.00    +0.000 HD
ATOM     12  H   UNL     1     -19.344  -0.065   7.075  0.00  0.00    +0.000 HD
BRANCH  10  13
ATOM     13  C   UNL     1     -21.168  -0.811   7.928  0.00  0.00    +0.000 C 
ATOM     14  H   UNL     1     -22.136  -0.650   7.442  0.00  0.00    +0.000 HD
ATOM     15  H   UNL     1     -21.225  -1.745   8.497  0.00  0.00    +0.000 HD
ATOM     16  H   UNL     1     -21.001   0.011   8.632  0.00  0.00    +0.000 HD
ENDBRANCH  10  13
ENDBRANCH   7  10
ENDBRANCH   4   7
ENDBRANCH   1   4
BRANCH   1  17
ATOM     17  C   UNL     1     -20.448  -4.231   4.981  0.00  0.00    +0.000 C 
ATOM     18  H   UNL     1     -20.232  -3.999   6.031  0.00  0.00    +0.000 HD
ATOM     19  H   UNL     1     -21.298  -4.922   4.948  0.00  0.00    +0.000 HD
BRANCH  17  21
ATOM     20  O   UNL     1     -18.432  -5.551   5.122  0.00  0.00    +0.000 OA
ATOM     21  C   UNL     1     -19.242  -4.961   4.409  0.00  0.00    +0.000 C 
BRANCH  21  22
ATOM     22  C   UNL     1     -19.082  -4.879   2.900  0.00  0.00    +0.000 C 
ATOM     23  H   UNL     1     -18.020  -4.734   2.675  0.00  0.00    +0.000 HD
ATOM     24  H   UNL     1     -19.637  -4.004   2.545  0.00  0.00    +0.000 HD
BRANCH  22  25
ATOM     25  C   UNL     1     -19.586  -6.121   2.187  0.00  0.00    +0.000 C 
ATOM     26  H   UNL     1     -18.854  -6.932   2.247  0.00  0.00    +0.000 HD
ATOM     27  H   UNL     1     -19.774  -5.905   1.131  0.00  0.00    +0.000 HD
ATOM     28  H   UNL     1     -20.520  -6.478   2.635  0.00  0.00    +0.000 HD
ENDBRANCH  22  25
ENDBRANCH  21  22
ENDBRANCH  17  21
ENDBRANCH   1  17
TORSDOF 8
ENDMDL
MODEL 4
REMARK VINA RESULT:    -4.367      1.390      3.139
REMARK INTER + INTRA:          -6.497
REMARK INTER:                  -5.945
REMARK INTRA:                  -0.552
REMARK UNBOUND:                -0.342
REMARK  Name = 61235
REMARK  8 active torsions:
REMARK  status: ('A' for Active; 'I' for Inactive)
REMARK    1  A    between atoms: C_2  and  C_3
REMARK    2  A    between atoms: C_2  and  C_4
REMARK    3  A    between atoms: C_3  and  C_5
REMARK    4  A    between atoms: C_4  and  C_6
REMARK    5  A    between atoms: C_5  and  C_7
REMARK    6  A    between atoms: C_6  and  C_8
REMARK    7  A    between atoms: C_7  and  C_9
REMARK    8  A    between atoms: C_9  and  C_10
REMARK                            x       y       z     vdW  Elec       q    Type
REMARK                         _______ _______ _______ _____ _____    ______ ____
ROOT
ATOM      1  C   UNL     1       4.478  11.652   0.251  0.00  0.00    +0.000 C 
ATOM      2  H   UNL     1       3.955  12.246  -0.508  0.00  0.00    +0.000 HD
ATOM      3  H   UNL     1       4.233  12.099   1.223  0.00  0.00    +0.000 HD
ENDROOT
BRANCH   1   4
ATOM      4  C   UNL     1       5.990  11.736   0.020  0.00  0.00    +0.000 C 
ATOM      5  H   UNL     1       6.518  11.289   0.871  0.00  0.00    +0.000 HD
ATOM      6  H   UNL     1       6.293  12.789  -0.033  0.00  0.00    +0.000 HD
BRANCH   4   7
ATOM      7  C   UNL     1       6.394  11.021  -1.271  0.00  0.00    +0.000 C 
ATOM      8  H   UNL     1       5.613  10.307  -1.557  0.00  0.00    +0.000 HD
ATOM      9  H   UNL     1       6.476  11.752  -2.085  0.00  0.00    +0.000 HD
BRANCH   7  10
ATOM     10  C   UNL     1       7.726  10.290  -1.108  0.00  0.00    +0.000 C 
ATOM     11  H   UNL     1       7.689   9.327  -1.630  0.00  0.00    +0.000 HD
ATOM     12  H   UNL     1       8.531  10.877  -1.564  0.00  0.00    +0.000 HD
BRANCH  10  13
ATOM     13  C   UNL     1       8.053  10.046   0.358  0.00  0.00    +0.000 C 
ATOM     14  H   UNL     1       7.132   9.990   0.946  0.00  0.00    +0.000 HD
ATOM     15  H   UNL     1       8.597   9.105   0.487  0.00  0.00    +0.000 HD
ATOM     16  H   UNL     1       8.666  10.857   0.764  0.00  0.00    +0.000 HD
ENDBRANCH  10  13
ENDBRANCH   7  10
ENDBRANCH   4   7
ENDBRANCH   1   4
BRANCH   1  17
ATOM     17  C   UNL     1       3.964  10.214   0.215  0.00  0.00    +0.000 C 
ATOM     18  H   UNL     1       2.949  10.194  -0.200  0.00  0.00    +0.000 HD
ATOM     19  H   UNL     1       4.612   9.610  -0.431  0.00  0.00    +0.000 HD
BRANCH  17  21
ATOM     20  O   UNL     1       3.063   9.808   2.417  0.00  0.00    +0.000 OA
ATOM     21  C   UNL     1       3.921   9.540   1.578  0.00  0.00    +0.000 C 
BRANCH  21  22
ATOM     22  C   UNL     1       5.034   8.541   1.850  0.00  0.00    +0.000 C 
ATOM     23  H   UNL     1       5.993   9.040   1.675  0.00  0.00    +0.000 HD
ATOM     24  H   UNL     1       4.934   7.716   1.137  0.00  0.00    +0.000 HD
BRANCH  22  25
ATOM     25  C   UNL     1       4.999   7.993   3.266  0.00  0.00    +0.000 C 
ATOM     26  H   UNL     1       5.930   8.216   3.796  0.00  0.00    +0.000 HD
ATOM     27  H   UNL     1       4.864   6.908   3.251  0.00  0.00    +0.000 HD
ATOM     28  H   UNL     1       4.175   8.434   3.837  0.00  0.00    +0.000 HD
ENDBRANCH  22  25
ENDBRANCH  21  22
ENDBRANCH  17  21
ENDBRANCH   1  17
TORSDOF 8
ENDMDL
MODEL 5
REMARK VINA RESULT:    -4.284     12.988     14.493
REMARK INTER + INTRA:          -6.380
REMARK INTER:                  -5.841
REMARK INTRA:                  -0.539
REMARK UNBOUND:                -0.342
REMARK  Name = 61235
REMARK  8 active torsions:
REMARK  status: ('A' for Active; 'I' for Inactive)
REMARK    1  A    between atoms: C_2  and  C_3
REMARK    2  A    between atoms: C_2  and  C_4
REMARK    3  A    between atoms: C_3  and  C_5
REMARK    4  A    between atoms: C_4  and  C_6
REMARK    5  A    between atoms: C_5  and  C_7
REMARK    6  A    between atoms: C_6  and  C_8
REMARK    7  A    between atoms: C_7  and  C_9
REMARK    8  A    between atoms: C_9  and  C_10
REMARK                            x       y       z     vdW  Elec       q    Type
REMARK                         _______ _______ _______ _____ _____    ______ ____
ROOT
ATOM      1  C   UNL     1      -0.910  10.111 -11.663  0.00  0.00    +0.000 C 
ATOM      2  H   UNL     1      -0.243  10.976 -11.765  0.00  0.00    +0.000 HD
ATOM      3  H   UNL     1      -1.784  10.313 -12.294  0.00  0.00    +0.000 HD
ENDROOT
BRANCH   1   4
ATOM      4  C   UNL     1      -1.356   9.974 -10.204  0.00  0.00    +0.000 C 
ATOM      5  H   UNL     1      -1.280  10.947  -9.704  0.00  0.00    +0.000 HD
ATOM      6  H   UNL     1      -0.683   9.286  -9.679  0.00  0.00    +0.000 HD
BRANCH   4   7
ATOM      7  C   UNL     1      -2.793   9.456 -10.111  0.00  0.00    +0.000 C 
ATOM      8  H   UNL     1      -3.474  10.291  -9.908  0.00  0.00    +0.000 HD
ATOM      9  H   UNL     1      -3.090   9.025 -11.076  0.00  0.00    +0.000 HD
BRANCH   7  10
ATOM     10  C   UNL     1      -2.933   8.400  -9.016  0.00  0.00    +0.000 C 
ATOM     11  H   UNL     1      -2.036   8.394  -8.387  0.00  0.00    +0.000 HD
ATOM     12  H   UNL     1      -3.783   8.645  -8.369  0.00  0.00    +0.000 HD
BRANCH  10  13
ATOM     13  C   UNL     1      -3.136   7.012  -9.603  0.00  0.00    +0.000 C 
ATOM     14  H   UNL     1      -3.243   7.072 -10.691  0.00  0.00    +0.000 HD
ATOM     15  H   UNL     1      -2.282   6.363  -9.381  0.00  0.00    +0.000 HD
ATOM     16  H   UNL     1      -4.038   6.542  -9.199  0.00  0.00    +0.000 HD
ENDBRANCH  10  13
ENDBRANCH   7  10
ENDBRANCH   4   7
ENDBRANCH   1   4
BRANCH   1  17
ATOM     17  C   UNL     1      -0.198   8.859 -12.174  0.00  0.00    +0.000 C 
ATOM     18  H   UNL     1       0.864   8.901 -11.905  0.00  0.00    +0.000 HD
ATOM     19  H   UNL     1      -0.638   7.971 -11.705  0.00  0.00    +0.000 HD
BRANCH  17  21
ATOM     20  O   UNL     1       0.530   9.166 -14.455  0.00  0.00    +0.000 OA
ATOM     21  C   UNL     1      -0.288   8.671 -13.681  0.00  0.00    +0.000 C 
BRANCH  21  22
ATOM     22  C   UNL     1      -1.480   7.865 -14.171  0.00  0.00    +0.000 C 
ATOM     23  H   UNL     1      -1.184   7.337 -15.083  0.00  0.00    +0.000 HD
ATOM     24  H   UNL     1      -2.287   8.564 -14.417  0.00  0.00    +0.000 HD
BRANCH  22  25
ATOM     25  C   UNL     1      -1.975   6.864 -13.142  0.00  0.00    +0.000 C 
ATOM     26  H   UNL     1      -3.068   6.818 -13.134  0.00  0.00    +0.000 HD
ATOM     27  H   UNL     1      -1.635   7.146 -12.141  0.00  0.00    +0.000 HD
ATOM     28  H   UNL     1      -1.599   5.858 -13.361  0.00  0.00    +0.000 HD
ENDBRANCH  22  25
ENDBRANCH  21  22
ENDBRANCH  17  21
ENDBRANCH   1  17
TORSDOF 8
ENDMDL
MODEL 6
REMARK VINA RESULT:    -4.186     12.534     14.329
REMARK INTER + INTRA:          -6.241
REMARK INTER:                  -5.568
REMARK INTRA:                  -0.673
REMARK UNBOUND:                -0.342
REMARK  Name = 61235
REMARK  8 active torsions:
REMARK  status: ('A' for Active; 'I' for Inactive)
REMARK    1  A    between atoms: C_2  and  C_3
REMARK    2  A    between atoms: C_2  and  C_4
REMARK    3  A    between atoms: C_3  and  C_5
REMARK    4  A    between atoms: C_4  and  C_6
REMARK    5  A    between atoms: C_5  and  C_7
REMARK    6  A    between atoms: C_6  and  C_8
REMARK    7  A    between atoms: C_7  and  C_9
REMARK    8  A    between atoms: C_9  and  C_10
REMARK                            x       y       z     vdW  Elec       q    Type
REMARK                         _______ _______ _______ _____ _____    ______ ____
ROOT
ATOM      1  C   UNL     1      -2.908   8.355  -8.730  0.00  0.00    +0.000 C 
ATOM      2  H   UNL     1      -1.972   8.398  -8.160  0.00  0.00    +0.000 HD
ATOM      3  H   UNL     1      -3.719   8.288  -7.994  0.00  0.00    +0.000 HD
ENDROOT
BRANCH   1   4
ATOM      4  C   UNL     1      -2.917   7.104  -9.613  0.00  0.00    +0.000 C 
ATOM      5  H   UNL     1      -2.535   6.249  -9.043  0.00  0.00    +0.000 HD
ATOM      6  H   UNL     1      -2.242   7.253 -10.465  0.00  0.00    +0.000 HD
BRANCH   4   7
ATOM      7  C   UNL     1      -4.326   6.797 -10.124  0.00  0.00    +0.000 C 
ATOM      8  H   UNL     1      -4.690   5.869  -9.666  0.00  0.00    +0.000 HD
ATOM      9  H   UNL     1      -5.010   7.598  -9.817  0.00  0.00    +0.000 HD
BRANCH   7  10
ATOM     10  C   UNL     1      -4.349   6.663 -11.646  0.00  0.00    +0.000 C 
ATOM     11  H   UNL     1      -3.733   7.448 -12.098  0.00  0.00    +0.000 HD
ATOM     12  H   UNL     1      -3.917   5.700 -11.941  0.00  0.00    +0.000 HD
BRANCH  10  13
ATOM     13  C   UNL     1      -5.764   6.765 -12.193  0.00  0.00    +0.000 C 
ATOM     14  H   UNL     1      -5.830   6.274 -13.169  0.00  0.00    +0.000 HD
ATOM     15  H   UNL     1      -6.481   6.282 -11.521  0.00  0.00    +0.000 HD
ATOM     16  H   UNL     1      -6.062   7.812 -12.319  0.00  0.00    +0.000 HD
ENDBRANCH  10  13
ENDBRANCH   7  10
ENDBRANCH   4   7
ENDBRANCH   1   4
BRANCH   1  17
ATOM     17  C   UNL     1      -3.068   9.641  -9.540  0.00  0.00    +0.000 C 
ATOM     18  H   UNL     1      -4.054   9.655 -10.020  0.00  0.00    +0.000 HD
ATOM     19  H   UNL     1      -2.996  10.506  -8.871  0.00  0.00    +0.000 HD
BRANCH  17  21
ATOM     20  O   UNL     1      -0.843  10.066 -10.374  0.00  0.00    +0.000 OA
ATOM     21  C   UNL     1      -2.019   9.817 -10.629  0.00  0.00    +0.000 C 
BRANCH  21  22
ATOM     22  C   UNL     1      -2.531   9.703 -12.056  0.00  0.00    +0.000 C 
ATOM     23  H   UNL     1      -2.474   8.653 -12.357  0.00  0.00    +0.000 HD
ATOM     24  H   UNL     1      -1.870  10.290 -12.703  0.00  0.00    +0.000 HD
BRANCH  22  25
ATOM     25  C   UNL     1      -3.958  10.199 -12.209  0.00  0.00    +0.000 C 
ATOM     26  H   UNL     1      -4.451  10.285 -11.236  0.00  0.00    +0.000 HD
ATOM     27  H   UNL     1      -4.537   9.507 -12.828  0.00  0.00    +0.000 HD
ATOM     28  H   UNL     1      -3.982  11.186 -12.684  0.00  0.00    +0.000 HD
ENDBRANCH  22  25
ENDBRANCH  21  22
ENDBRANCH  17  21
ENDBRANCH   1  17
TORSDOF 8
ENDMDL
MODEL 7
REMARK VINA RESULT:    -4.180     12.637     13.987
REMARK INTER + INTRA:          -6.232
REMARK INTER:                  -5.676
REMARK INTRA:                  -0.557
REMARK UNBOUND:                -0.342
REMARK  Name = 61235
REMARK  8 active torsions:
REMARK  status: ('A' for Active; 'I' for Inactive)
REMARK    1  A    between atoms: C_2  and  C_3
REMARK    2  A    between atoms: C_2  and  C_4
REMARK    3  A    between atoms: C_3  and  C_5
REMARK    4  A    between atoms: C_4  and  C_6
REMARK    5  A    between atoms: C_5  and  C_7
REMARK    6  A    between atoms: C_6  and  C_8
REMARK    7  A    between atoms: C_7  and  C_9
REMARK    8  A    between atoms: C_9  and  C_10
REMARK                            x       y       z     vdW  Elec       q    Type
REMARK                         _______ _______ _______ _____ _____    ______ ____
ROOT
ATOM      1  C   UNL     1      -3.056   8.444  -8.601  0.00  0.00    +0.000 C 
ATOM      2  H   UNL     1      -4.047   8.503  -8.135  0.00  0.00    +0.000 HD
ATOM      3  H   UNL     1      -2.325   8.436  -7.783  0.00  0.00    +0.000 HD
ENDROOT
BRANCH   1   4
ATOM      4  C   UNL     1      -2.824   9.680  -9.477  0.00  0.00    +0.000 C 
ATOM      5  H   UNL     1      -3.063  10.585  -8.906  0.00  0.00    +0.000 HD
ATOM      6  H   UNL     1      -3.504   9.650 -10.337  0.00  0.00    +0.000 HD
BRANCH   4   7
ATOM      7  C   UNL     1      -1.377   9.746  -9.970  0.00  0.00    +0.000 C 
ATOM      8  H   UNL     1      -0.855  10.571  -9.470  0.00  0.00    +0.000 HD
ATOM      9  H   UNL     1      -0.854   8.821  -9.697  0.00  0.00    +0.000 HD
BRANCH   7  10
ATOM     10  C   UNL     1      -1.314   9.939 -11.484  0.00  0.00    +0.000 C 
ATOM     11  H   UNL     1      -2.328  10.031 -11.891  0.00  0.00    +0.000 HD
ATOM     12  H   UNL     1      -0.784  10.870 -11.719  0.00  0.00    +0.000 HD
BRANCH  10  13
ATOM     13  C   UNL     1      -0.610   8.776 -12.166  0.00  0.00    +0.000 C 
ATOM     14  H   UNL     1       0.169   8.370 -11.513  0.00  0.00    +0.000 HD
ATOM     15  H   UNL     1      -1.316   7.970 -12.394  0.00  0.00    +0.000 HD
ATOM     16  H   UNL     1      -0.138   9.096 -13.101  0.00  0.00    +0.000 HD
ENDBRANCH  10  13
ENDBRANCH   7  10
ENDBRANCH   4   7
ENDBRANCH   1   4
BRANCH   1  17
ATOM     17  C   UNL     1      -2.941   7.142  -9.391  0.00  0.00    +0.000 C 
ATOM     18  H   UNL     1      -2.097   7.204 -10.087  0.00  0.00    +0.000 HD
ATOM     19  H   UNL     1      -2.759   6.310  -8.701  0.00  0.00    +0.000 HD
BRANCH  17  21
ATOM     20  O   UNL     1      -5.224   6.409  -9.672  0.00  0.00    +0.000 OA
ATOM     21  C   UNL     1      -4.185   6.800 -10.199  0.00  0.00    +0.000 C 
BRANCH  21  22
ATOM     22  C   UNL     1      -4.045   6.938 -11.706  0.00  0.00    +0.000 C 
ATOM     23  H   UNL     1      -3.311   6.201 -12.051  0.00  0.00    +0.000 HD
ATOM     24  H   UNL     1      -3.661   7.941 -11.923  0.00  0.00    +0.000 HD
BRANCH  22  25
ATOM     25  C   UNL     1      -5.357   6.729 -12.440  0.00  0.00    +0.000 C 
ATOM     26  H   UNL     1      -5.183   6.432 -13.479  0.00  0.00    +0.000 HD
ATOM     27  H   UNL     1      -5.945   7.651 -12.440  0.00  0.00    +0.000 HD
ATOM     28  H   UNL     1      -5.953   5.943 -11.963  0.00  0.00    +0.000 HD
ENDBRANCH  22  25
ENDBRANCH  21  22
ENDBRANCH  17  21
ENDBRANCH   1  17
TORSDOF 8
ENDMDL
MODEL 8
REMARK VINA RESULT:    -4.078     12.684     14.010
REMARK INTER + INTRA:          -6.088
REMARK INTER:                  -5.491
REMARK INTRA:                  -0.597
REMARK UNBOUND:                -0.342
REMARK  Name = 61235
REMARK  8 active torsions:
REMARK  status: ('A' for Active; 'I' for Inactive)
REMARK    1  A    between atoms: C_2  and  C_3
REMARK    2  A    between atoms: C_2  and  C_4
REMARK    3  A    between atoms: C_3  and  C_5
REMARK    4  A    between atoms: C_4  and  C_6
REMARK    5  A    between atoms: C_5  and  C_7
REMARK    6  A    between atoms: C_6  and  C_8
REMARK    7  A    between atoms: C_7  and  C_9
REMARK    8  A    between atoms: C_9  and  C_10
REMARK                            x       y       z     vdW  Elec       q    Type
REMARK                         _______ _______ _______ _____ _____    ______ ____
ROOT
ATOM      1  C   UNL     1      -2.266   6.743 -11.013  0.00  0.00    +0.000 C 
ATOM      2  H   UNL     1      -1.373   7.373 -10.912  0.00  0.00    +0.000 HD
ATOM      3  H   UNL     1      -1.945   5.713 -10.812  0.00  0.00    +0.000 HD
ENDROOT
BRANCH   1   4
ATOM      4  C   UNL     1      -2.805   6.839 -12.443  0.00  0.00    +0.000 C 
ATOM      5  H   UNL     1      -3.537   7.653 -12.506  0.00  0.00    +0.000 HD
ATOM      6  H   UNL     1      -3.329   5.910 -12.699  0.00  0.00    +0.000 HD
BRANCH   4   7
ATOM      7  C   UNL     1      -1.675   7.083 -13.446  0.00  0.00    +0.000 C 
ATOM      8  H   UNL     1      -0.744   6.647 -13.065  0.00  0.00    +0.000 HD
ATOM      9  H   UNL     1      -1.907   6.574 -14.391  0.00  0.00    +0.000 HD
BRANCH   7  10
ATOM     10  C   UNL     1      -1.477   8.575 -13.708  0.00  0.00    +0.000 C 
ATOM     11  H   UNL     1      -1.768   8.816 -14.737  0.00  0.00    +0.000 HD
ATOM     12  H   UNL     1      -2.123   9.159 -13.042  0.00  0.00    +0.000 HD
BRANCH  10  13
ATOM     13  C   UNL     1      -0.030   8.991 -13.492  0.00  0.00    +0.000 C 
ATOM     14  H   UNL     1       0.629   8.433 -14.165  0.00  0.00    +0.000 HD
ATOM     15  H   UNL     1       0.105  10.059 -13.693  0.00  0.00    +0.000 HD
ATOM     16  H   UNL     1       0.288   8.792 -12.463  0.00  0.00    +0.000 HD
ENDBRANCH  10  13
ENDBRANCH   7  10
ENDBRANCH   4   7
ENDBRANCH   1   4
BRANCH   1  17
ATOM     17  C   UNL     1      -3.302   7.161  -9.971  0.00  0.00    +0.000 C 
ATOM     18  H   UNL     1      -4.254   7.387 -10.466  0.00  0.00    +0.000 HD
ATOM     19  H   UNL     1      -3.467   6.336  -9.268  0.00  0.00    +0.000 HD
BRANCH  17  21
ATOM     20  O   UNL     1      -3.173   8.495  -7.964  0.00  0.00    +0.000 OA
ATOM     21  C   UNL     1      -2.900   8.382  -9.157  0.00  0.00    +0.000 C 
BRANCH  21  22
ATOM     22  C   UNL     1      -2.174   9.472  -9.928  0.00  0.00    +0.000 C 
ATOM     23  H   UNL     1      -1.344   9.011 -10.473  0.00  0.00    +0.000 HD
ATOM     24  H   UNL     1      -1.763  10.185  -9.204  0.00  0.00    +0.000 HD
BRANCH  22  25
ATOM     25  C   UNL     1      -3.078  10.205 -10.902  0.00  0.00    +0.000 C 
ATOM     26  H   UNL     1      -2.796   9.988 -11.938  0.00  0.00    +0.000 HD
ATOM     27  H   UNL     1      -3.009  11.286 -10.748  0.00  0.00    +0.000 HD
ATOM     28  H   UNL     1      -4.123   9.906 -10.770  0.00  0.00    +0.000 HD
ENDBRANCH  22  25
ENDBRANCH  21  22
ENDBRANCH  17  21
ENDBRANCH   1  17
TORSDOF 8
ENDMDL
MODEL 9
REMARK VINA RESULT:    -4.006     27.631     29.033
REMARK INTER + INTRA:          -5.988
REMARK INTER:                  -5.712
REMARK INTRA:                  -0.277
REMARK UNBOUND:                -0.342
REMARK  Name = 61235
REMARK  8 active torsions:
REMARK  status: ('A' for Active; 'I' for Inactive)
REMARK    1  A    between atoms: C_2  and  C_3
REMARK    2  A    between atoms: C_2  and  C_4
REMARK    3  A    between atoms: C_3  and  C_5
REMARK    4  A    between atoms: C_4  and  C_6
REMARK    5  A    between atoms: C_5  and  C_7
REMARK    6  A    between atoms: C_6  and  C_8
REMARK    7  A    between atoms: C_7  and  C_9
REMARK    8  A    between atoms: C_9  and  C_10
REMARK                            x       y       z     vdW  Elec       q    Type
REMARK                         _______ _______ _______ _____ _____    ______ ____
ROOT
ATOM      1  C   UNL     1     -20.011  -4.006   4.847  0.00  0.00    +0.000 C 
ATOM      2  H   UNL     1     -19.005  -3.700   4.535  0.00  0.00    +0.000 HD
ATOM      3  H   UNL     1     -19.899  -4.504   5.817  0.00  0.00    +0.000 HD
ENDROOT
BRANCH   1   4
ATOM      4  C   UNL     1     -20.587  -4.996   3.830  0.00  0.00    +0.000 C 
ATOM      5  H   UNL     1     -21.212  -4.459   3.107  0.00  0.00    +0.000 HD
ATOM      6  H   UNL     1     -21.233  -5.716   4.347  0.00  0.00    +0.000 HD
BRANCH   4   7
ATOM      7  C   UNL     1     -19.473  -5.744   3.093  0.00  0.00    +0.000 C 
ATOM      8  H   UNL     1     -18.675  -6.004   3.798  0.00  0.00    +0.000 HD
ATOM      9  H   UNL     1     -19.868  -6.686   2.691  0.00  0.00    +0.000 HD
BRANCH   7  10
ATOM     10  C   UNL     1     -18.900  -4.904   1.953  0.00  0.00    +0.000 C 
ATOM     11  H   UNL     1     -19.206  -5.326   0.988  0.00  0.00    +0.000 HD
ATOM     12  H   UNL     1     -19.300  -3.885   2.004  0.00  0.00    +0.000 HD
BRANCH  10  13
ATOM     13  C   UNL     1     -17.381  -4.849   2.010  0.00  0.00    +0.000 C 
ATOM     14  H   UNL     1     -16.950  -5.644   1.394  0.00  0.00    +0.000 HD
ATOM     15  H   UNL     1     -17.009  -3.890   1.635  0.00  0.00    +0.000 HD
ATOM     16  H   UNL     1     -17.022  -4.981   3.035  0.00  0.00    +0.000 HD
ENDBRANCH  10  13
ENDBRANCH   7  10
ENDBRANCH   4   7
ENDBRANCH   1   4
BRANCH   1  17
ATOM     17  C   UNL     1     -20.890  -2.767   5.014  0.00  0.00    +0.000 C 
ATOM     18  H   UNL     1     -20.566  -1.987   4.316  0.00  0.00    +0.000 HD
ATOM     19  H   UNL     1     -21.931  -3.024   4.787  0.00  0.00    +0.000 HD
BRANCH  17  21
ATOM     20  O   UNL     1     -21.278  -2.790   7.397  0.00  0.00    +0.000 OA
ATOM     21  C   UNL     1     -20.860  -2.177   6.417  0.00  0.00    +0.000 C 
BRANCH  21  22
ATOM     22  C   UNL     1     -20.315  -0.762   6.520  0.00  0.00    +0.000 C 
ATOM     23  H   UNL     1     -19.274  -0.819   6.851  0.00  0.00    +0.000 HD
ATOM     24  H   UNL     1     -20.895  -0.228   7.281  0.00  0.00    +0.000 HD
BRANCH  22  25
ATOM     25  C   UNL     1     -20.390  -0.006   5.205  0.00  0.00    +0.000 C 
ATOM     26  H   UNL     1     -21.118   0.809   5.262  0.00  0.00    +0.000 HD
ATOM     27  H   UNL     1     -20.690  -0.678   4.395  0.00  0.00    +0.000 HD
ATOM     28  H   UNL     1     -19.419   0.430   4.947  0.00  0.00    +0.000 HD
ENDBRANCH  22  25
ENDBRANCH  21  22
ENDBRANCH  17  21
ENDBRANCH   1  17
TORSDOF 8
ENDMDL
MODEL 10
REMARK VINA RESULT:    -3.950     12.914     14.043
REMARK INTER + INTRA:          -5.908
REMARK INTER:                  -5.566
REMARK INTRA:                  -0.342
REMARK UNBOUND:                -0.342
REMARK  Name = 61235
REMARK  8 active torsions:
REMARK  status: ('A' for Active; 'I' for Inactive)
REMARK    1  A    between atoms: C_2  and  C_3
REMARK    2  A    between atoms: C_2  and  C_4
REMARK    3  A    between atoms: C_3  and  C_5
REMARK    4  A    between atoms: C_4  and  C_6
REMARK    5  A    between atoms: C_5  and  C_7
REMARK    6  A    between atoms: C_6  and  C_8
REMARK    7  A    between atoms: C_7  and  C_9
REMARK    8  A    between atoms: C_9  and  C_10
REMARK                            x       y       z     vdW  Elec       q    Type
REMARK                         _______ _______ _______ _____ _____    ______ ____
ROOT
ATOM      1  C   UNL     1      -2.988   9.794 -10.535  0.00  0.00    +0.000 C 
ATOM      2  H   UNL     1      -4.073   9.634 -10.501  0.00  0.00    +0.000 HD
ATOM      3  H   UNL     1      -2.808  10.801 -10.138  0.00  0.00    +0.000 HD
ENDROOT
BRANCH   1   4
ATOM      4  C   UNL     1      -2.502   9.725 -11.986  0.00  0.00    +0.000 C 
ATOM      5  H   UNL     1      -2.950  10.542 -12.563  0.00  0.00    +0.000 HD
ATOM      6  H   UNL     1      -2.838   8.784 -12.439  0.00  0.00    +0.000 HD
BRANCH   4   7
ATOM      7  C   UNL     1      -0.976   9.814 -12.063  0.00  0.00    +0.000 C 
ATOM      8  H   UNL     1      -0.684  10.778 -12.497  0.00  0.00    +0.000 HD
ATOM      9  H   UNL     1      -0.555   9.774 -11.051  0.00  0.00    +0.000 HD
BRANCH   7  10
ATOM     10  C   UNL     1      -0.395   8.675 -12.901  0.00  0.00    +0.000 C 
ATOM     11  H   UNL     1       0.295   8.079 -12.293  0.00  0.00    +0.000 HD
ATOM     12  H   UNL     1      -1.199   8.007 -13.230  0.00  0.00    +0.000 HD
BRANCH  10  13
ATOM     13  C   UNL     1       0.347   9.203 -14.119  0.00  0.00    +0.000 C 
ATOM     14  H   UNL     1      -0.323   9.243 -14.983  0.00  0.00    +0.000 HD
ATOM     15  H   UNL     1       0.730  10.212 -13.938  0.00  0.00    +0.000 HD
ATOM     16  H   UNL     1       1.192   8.555 -14.375  0.00  0.00    +0.000 HD
ENDBRANCH  10  13
ENDBRANCH   7  10
ENDBRANCH   4   7
ENDBRANCH   1   4
BRANCH   1  17
ATOM     17  C   UNL     1      -2.295   8.768  -9.639  0.00  0.00    +0.000 C 
ATOM     18  H   UNL     1      -1.216   8.777  -9.833  0.00  0.00    +0.000 HD
ATOM     19  H   UNL     1      -2.460   9.031  -8.588  0.00  0.00    +0.000 HD
BRANCH  17  21
ATOM     20  O   UNL     1      -2.375   6.623 -10.744  0.00  0.00    +0.000 OA
ATOM     21  C   UNL     1      -2.791   7.343  -9.838  0.00  0.00    +0.000 C 
BRANCH  21  22
ATOM     22  C   UNL     1      -3.864   6.882  -8.866  0.00  0.00    +0.000 C 
ATOM     23  H   UNL     1      -4.123   7.724  -8.217  0.00  0.00    +0.000 HD
ATOM     24  H   UNL     1      -3.443   6.081  -8.248  0.00  0.00    +0.000 HD
BRANCH  22  25
ATOM     25  C   UNL     1      -5.113   6.377  -9.566  0.00  0.00    +0.000 C 
ATOM     26  H   UNL     1      -5.455   5.434  -9.127  0.00  0.00    +0.000 HD
ATOM     27  H   UNL     1      -4.913   6.208 -10.628  0.00  0.00    +0.000 HD
ATOM     28  H   UNL     1      -5.930   7.101  -9.481  0.00  0.00    +0.000 HD
ENDBRANCH  22  25
ENDBRANCH  21  22
ENDBRANCH  17  21
ENDBRANCH   1  17
TORSDOF 8
ENDMDL
