MODEL 1
REMARK VINA RESULT:    -4.206      0.000      0.000
REMARK INTER + INTRA:          -6.112
REMARK INTER:                  -5.876
REMARK INTRA:                  -0.236
REMARK UNBOUND:                -0.431
REMARK  Name = 246728
REMARK  7 active torsions:
REMARK  status: ('A' for Active; 'I' for Inactive)
REMARK    1  A    between atoms: C_2  and  C_3
REMARK    2  A    between atoms: C_2  and  C_4
REMARK    3  A    between atoms: C_3  and  C_5
REMARK    4  A    between atoms: C_4  and  C_6
REMARK    5  A    between atoms: C_5  and  C_8
REMARK    6  A    between atoms: C_6  and  C_7
REMARK    7  A    between atoms: C_7  and  C_9
REMARK                            x       y       z     vdW  Elec       q    Type
REMARK                         _______ _______ _______ _____ _____    ______ ____
ROOT
ATOM      1  C   UNL     1       6.099   9.222   1.041  0.00  0.00    +0.000 C 
ATOM      2  H   UNL     1       6.693   9.308   0.123  0.00  0.00    +0.000 HD
ATOM      3  H   UNL     1       6.265  10.147   1.608  0.00  0.00    +0.000 HD
ENDROOT
BRANCH   1   4
ATOM      4  C   UNL     1       6.592   8.027   1.865  0.00  0.00    +0.000 C 
ATOM      5  H   UNL     1       6.819   7.188   1.196  0.00  0.00    +0.000 HD
ATOM      6  H   UNL     1       7.524   8.297   2.375  0.00  0.00    +0.000 HD
BRANCH   4   7
ATOM      7  C   UNL     1       5.547   7.598   2.896  0.00  0.00    +0.000 C 
ATOM      8  H   UNL     1       4.894   6.828   2.466  0.00  0.00    +0.000 HD
ATOM      9  H   UNL     1       4.912   8.451   3.161  0.00  0.00    +0.000 HD
BRANCH   7  10
ATOM     10  C   UNL     1       6.201   7.054   4.156  0.00  0.00    +0.000 C 
ATOM     11  H   UNL     1       6.866   7.807   4.592  0.00  0.00    +0.000 HD
ATOM     12  H   UNL     1       5.449   6.789   4.906  0.00  0.00    +0.000 HD
ATOM     13  H   UNL     1       6.797   6.162   3.936  0.00  0.00    +0.000 HD
ENDBRANCH   7  10
ENDBRANCH   4   7
ENDBRANCH   1   4
BRANCH   1  14
ATOM     14  C   UNL     1       4.620   9.107   0.676  0.00  0.00    +0.000 C 
ATOM     15  H   UNL     1       4.514   9.026  -0.412  0.00  0.00    +0.000 HD
ATOM     16  H   UNL     1       4.201   8.203   1.131  0.00  0.00    +0.000 HD
BRANCH  14  18
ATOM     17  O   UNL     1       3.102  10.250   2.167  0.00  0.00    +0.000 OA
ATOM     18  C   UNL     1       3.777  10.287   1.139  0.00  0.00    +0.000 C 
BRANCH  18  19
ATOM     19  C   UNL     1       3.796  11.502   0.226  0.00  0.00    +0.000 C 
ATOM     20  H   UNL     1       3.046  12.212   0.587  0.00  0.00    +0.000 HD
ATOM     21  H   UNL     1       4.784  11.968   0.297  0.00  0.00    +0.000 HD
BRANCH  19  22
ATOM     22  C   UNL     1       3.507  11.152  -1.223  0.00  0.00    +0.000 C 
ATOM     23  H   UNL     1       4.329  10.574  -1.660  0.00  0.00    +0.000 HD
ATOM     24  H   UNL     1       3.375  12.057  -1.828  0.00  0.00    +0.000 HD
ATOM     25  H   UNL     1       2.593  10.556  -1.297  0.00  0.00    +0.000 HD
ENDBRANCH  19  22
ENDBRANCH  18  19
ENDBRANCH  14  18
ENDBRANCH   1  14
TORSDOF 7
ENDMDL
MODEL 2
REMARK VINA RESULT:    -4.126      2.214      3.156
REMARK INTER + INTRA:          -6.004
REMARK INTER:                  -5.723
REMARK INTRA:                  -0.282
REMARK UNBOUND:                -0.431
REMARK  Name = 246728
REMARK  7 active torsions:
REMARK  status: ('A' for Active; 'I' for Inactive)
REMARK    1  A    between atoms: C_2  and  C_3
REMARK    2  A    between atoms: C_2  and  C_4
REMARK    3  A    between atoms: C_3  and  C_5
REMARK    4  A    between atoms: C_4  and  C_6
REMARK    5  A    between atoms: C_5  and  C_8
REMARK    6  A    between atoms: C_6  and  C_7
REMARK    7  A    between atoms: C_7  and  C_9
REMARK                            x       y       z     vdW  Elec       q    Type
REMARK                         _______ _______ _______ _____ _____    ______ ____
ROOT
ATOM      1  C   UNL     1       6.170   9.923   0.292  0.00  0.00    +0.000 C 
ATOM      2  H   UNL     1       6.278  10.670   1.087  0.00  0.00    +0.000 HD
ATOM      3  H   UNL     1       6.752   9.046   0.606  0.00  0.00    +0.000 HD
ENDROOT
BRANCH   1   4
ATOM      4  C   UNL     1       6.749  10.473  -1.016  0.00  0.00    +0.000 C 
ATOM      5  H   UNL     1       6.256   9.990  -1.868  0.00  0.00    +0.000 HD
ATOM      6  H   UNL     1       6.536  11.547  -1.085  0.00  0.00    +0.000 HD
BRANCH   4   7
ATOM      7  C   UNL     1       8.259  10.243  -1.094  0.00  0.00    +0.000 C 
ATOM      8  H   UNL     1       8.705  10.364  -0.099  0.00  0.00    +0.000 HD
ATOM      9  H   UNL     1       8.718  10.992  -1.748  0.00  0.00    +0.000 HD
BRANCH   7  10
ATOM     10  C   UNL     1       8.582   8.855  -1.622  0.00  0.00    +0.000 C 
ATOM     11  H   UNL     1       7.963   8.630  -2.497  0.00  0.00    +0.000 HD
ATOM     12  H   UNL     1       9.633   8.784  -1.922  0.00  0.00    +0.000 HD
ATOM     13  H   UNL     1       8.388   8.090  -0.864  0.00  0.00    +0.000 HD
ENDBRANCH   7  10
ENDBRANCH   4   7
ENDBRANCH   1   4
BRANCH   1  14
ATOM     14  C   UNL     1       4.698   9.536   0.160  0.00  0.00    +0.000 C 
ATOM     15  H   UNL     1       4.451   9.379  -0.896  0.00  0.00    +0.000 HD
ATOM     16  H   UNL     1       4.518   8.599   0.699  0.00  0.00    +0.000 HD
BRANCH  14  18
ATOM     17  O   UNL     1       3.251  10.492   1.841  0.00  0.00    +0.000 OA
ATOM     18  C   UNL     1       3.734  10.576   0.713  0.00  0.00    +0.000 C 
BRANCH  18  19
ATOM     19  C   UNL     1       3.381  11.710  -0.237  0.00  0.00    +0.000 C 
ATOM     20  H   UNL     1       2.507  12.232   0.166  0.00  0.00    +0.000 HD
ATOM     21  H   UNL     1       4.224  12.407  -0.266  0.00  0.00    +0.000 HD
BRANCH  19  22
ATOM     22  C   UNL     1       3.079  11.224  -1.643  0.00  0.00    +0.000 C 
ATOM     23  H   UNL     1       2.089  10.757  -1.694  0.00  0.00    +0.000 HD
ATOM     24  H   UNL     1       3.816  10.482  -1.970  0.00  0.00    +0.000 HD
ATOM     25  H   UNL     1       3.099  12.060  -2.348  0.00  0.00    +0.000 HD
ENDBRANCH  19  22
ENDBRANCH  18  19
ENDBRANCH  14  18
ENDBRANCH   1  14
TORSDOF 7
ENDMDL
MODEL 3
REMARK VINA RESULT:    -4.074      2.385      4.419
REMARK INTER + INTRA:          -5.934
REMARK INTER:                  -5.504
REMARK INTRA:                  -0.431
REMARK UNBOUND:                -0.431
REMARK  Name = 246728
REMARK  7 active torsions:
REMARK  status: ('A' for Active; 'I' for Inactive)
REMARK    1  A    between atoms: C_2  and  C_3
REMARK    2  A    between atoms: C_2  and  C_4
REMARK    3  A    between atoms: C_3  and  C_5
REMARK    4  A    between atoms: C_4  and  C_6
REMARK    5  A    between atoms: C_5  and  C_8
REMARK    6  A    between atoms: C_6  and  C_7
REMARK    7  A    between atoms: C_7  and  C_9
REMARK                            x       y       z     vdW  Elec       q    Type
REMARK                         _______ _______ _______ _____ _____    ______ ____
ROOT
ATOM      1  C   UNL     1       4.090   9.119   0.448  0.00  0.00    +0.000 C 
ATOM      2  H   UNL     1       4.130   9.267  -0.638  0.00  0.00    +0.000 HD
ATOM      3  H   UNL     1       3.387   8.294   0.624  0.00  0.00    +0.000 HD
ENDROOT
BRANCH   1   4
ATOM      4  C   UNL     1       3.563  10.388   1.125  0.00  0.00    +0.000 C 
ATOM      5  H   UNL     1       2.522  10.235   1.433  0.00  0.00    +0.000 HD
ATOM      6  H   UNL     1       4.145  10.584   2.034  0.00  0.00    +0.000 HD
BRANCH   4   7
ATOM      7  C   UNL     1       3.654  11.593   0.188  0.00  0.00    +0.000 C 
ATOM      8  H   UNL     1       4.630  12.080   0.301  0.00  0.00    +0.000 HD
ATOM      9  H   UNL     1       2.890  12.333   0.456  0.00  0.00    +0.000 HD
BRANCH   7  10
ATOM     10  C   UNL     1       3.463  11.184  -1.263  0.00  0.00    +0.000 C 
ATOM     11  H   UNL     1       4.430  11.145  -1.776  0.00  0.00    +0.000 HD
ATOM     12  H   UNL     1       3.000  10.194  -1.334  0.00  0.00    +0.000 HD
ATOM     13  H   UNL     1       2.827  11.900  -1.794  0.00  0.00    +0.000 HD
ENDBRANCH   7  10
ENDBRANCH   4   7
ENDBRANCH   1   4
BRANCH   1  14
ATOM     14  C   UNL     1       5.477   8.721   0.954  0.00  0.00    +0.000 C 
ATOM     15  H   UNL     1       5.732   9.318   1.838  0.00  0.00    +0.000 HD
ATOM     16  H   UNL     1       5.470   7.664   1.242  0.00  0.00    +0.000 HD
BRANCH  14  18
ATOM     17  O   UNL     1       7.010   7.985  -0.761  0.00  0.00    +0.000 OA
ATOM     18  C   UNL     1       6.585   8.911  -0.071  0.00  0.00    +0.000 C 
BRANCH  18  19
ATOM     19  C   UNL     1       7.159  10.316  -0.161  0.00  0.00    +0.000 C 
ATOM     20  H   UNL     1       6.324  11.023  -0.217  0.00  0.00    +0.000 HD
ATOM     21  H   UNL     1       7.725  10.514   0.755  0.00  0.00    +0.000 HD
BRANCH  19  22
ATOM     22  C   UNL     1       8.065  10.505  -1.364  0.00  0.00    +0.000 C 
ATOM     23  H   UNL     1       8.058   9.616  -2.005  0.00  0.00    +0.000 HD
ATOM     24  H   UNL     1       9.100  10.686  -1.053  0.00  0.00    +0.000 HD
ATOM     25  H   UNL     1       7.733  11.359  -1.962  0.00  0.00    +0.000 HD
ENDBRANCH  19  22
ENDBRANCH  18  19
ENDBRANCH  14  18
ENDBRANCH   1  14
TORSDOF 7
ENDMDL
MODEL 4
REMARK VINA RESULT:    -3.975     27.604     28.240
REMARK INTER + INTRA:          -5.800
REMARK INTER:                  -5.541
REMARK INTRA:                  -0.259
REMARK UNBOUND:                -0.431
REMARK  Name = 246728
REMARK  7 active torsions:
REMARK  status: ('A' for Active; 'I' for Inactive)
REMARK    1  A    between atoms: C_2  and  C_3
REMARK    2  A    between atoms: C_2  and  C_4
REMARK    3  A    between atoms: C_3  and  C_5
REMARK    4  A    between atoms: C_4  and  C_6
REMARK    5  A    between atoms: C_5  and  C_8
REMARK    6  A    between atoms: C_6  and  C_7
REMARK    7  A    between atoms: C_7  and  C_9
REMARK                            x       y       z     vdW  Elec       q    Type
REMARK                         _______ _______ _______ _____ _____    ______ ____
ROOT
ATOM      1  C   UNL     1     -20.734  -3.094   4.012  0.00  0.00    +0.000 C 
ATOM      2  H   UNL     1     -19.917  -2.923   3.300  0.00  0.00    +0.000 HD
ATOM      3  H   UNL     1     -21.618  -3.355   3.416  0.00  0.00    +0.000 HD
ENDROOT
BRANCH   1   4
ATOM      4  C   UNL     1     -21.014  -1.808   4.796  0.00  0.00    +0.000 C 
ATOM      5  H   UNL     1     -20.370  -1.002   4.423  0.00  0.00    +0.000 HD
ATOM      6  H   UNL     1     -22.053  -1.497   4.629  0.00  0.00    +0.000 HD
BRANCH   4   7
ATOM      7  C   UNL     1     -20.774  -2.009   6.294  0.00  0.00    +0.000 C 
ATOM      8  H   UNL     1     -20.106  -2.865   6.452  0.00  0.00    +0.000 HD
ATOM      9  H   UNL     1     -21.721  -2.239   6.796  0.00  0.00    +0.000 HD
BRANCH   7  10
ATOM     10  C   UNL     1     -20.161  -0.772   6.929  0.00  0.00    +0.000 C 
ATOM     11  H   UNL     1     -19.225  -0.511   6.424  0.00  0.00    +0.000 HD
ATOM     12  H   UNL     1     -20.839   0.085   6.853  0.00  0.00    +0.000 HD
ATOM     13  H   UNL     1     -19.939  -0.942   7.988  0.00  0.00    +0.000 HD
ENDBRANCH   7  10
ENDBRANCH   4   7
ENDBRANCH   1   4
BRANCH   1  14
ATOM     14  C   UNL     1     -20.372  -4.265   4.925  0.00  0.00    +0.000 C 
ATOM     15  H   UNL     1     -20.070  -3.887   5.908  0.00  0.00    +0.000 HD
ATOM     16  H   UNL     1     -21.249  -4.908   5.057  0.00  0.00    +0.000 HD
BRANCH  14  18
ATOM     17  O   UNL     1     -18.397  -5.641   5.131  0.00  0.00    +0.000 OA
ATOM     18  C   UNL     1     -19.241  -5.134   4.393  0.00  0.00    +0.000 C 
BRANCH  18  19
ATOM     19  C   UNL     1     -19.203  -5.306   2.883  0.00  0.00    +0.000 C 
ATOM     20  H   UNL     1     -19.421  -6.353   2.653  0.00  0.00    +0.000 HD
ATOM     21  H   UNL     1     -19.989  -4.679   2.448  0.00  0.00    +0.000 HD
BRANCH  19  22
ATOM     22  C   UNL     1     -17.862  -4.923   2.283  0.00  0.00    +0.000 C 
ATOM     23  H   UNL     1     -17.330  -4.214   2.927  0.00  0.00    +0.000 HD
ATOM     24  H   UNL     1     -17.990  -4.453   1.301  0.00  0.00    +0.000 HD
ATOM     25  H   UNL     1     -17.233  -5.809   2.158  0.00  0.00    +0.000 HD
ENDBRANCH  19  22
ENDBRANCH  18  19
ENDBRANCH  14  18
ENDBRANCH   1  14
TORSDOF 7
ENDMDL
MODEL 5
REMARK VINA RESULT:    -3.950     13.443     14.757
REMARK INTER + INTRA:          -5.766
REMARK INTER:                  -5.301
REMARK INTRA:                  -0.465
REMARK UNBOUND:                -0.431
REMARK  Name = 246728
REMARK  7 active torsions:
REMARK  status: ('A' for Active; 'I' for Inactive)
REMARK    1  A    between atoms: C_2  and  C_3
REMARK    2  A    between atoms: C_2  and  C_4
REMARK    3  A    between atoms: C_3  and  C_5
REMARK    4  A    between atoms: C_4  and  C_6
REMARK    5  A    between atoms: C_5  and  C_8
REMARK    6  A    between atoms: C_6  and  C_7
REMARK    7  A    between atoms: C_7  and  C_9
REMARK                            x       y       z     vdW  Elec       q    Type
REMARK                         _______ _______ _______ _____ _____    ______ ____
ROOT
ATOM      1  C   UNL     1      -1.232  10.004 -11.498  0.00  0.00    +0.000 C 
ATOM      2  H   UNL     1      -0.841  11.001 -11.736  0.00  0.00    +0.000 HD
ATOM      3  H   UNL     1      -2.234   9.948 -11.943  0.00  0.00    +0.000 HD
ENDROOT
BRANCH   1   4
ATOM      4  C   UNL     1      -1.341   9.841  -9.979  0.00  0.00    +0.000 C 
ATOM      5  H   UNL     1      -0.801   8.939  -9.666  0.00  0.00    +0.000 HD
ATOM      6  H   UNL     1      -0.860  10.695  -9.485  0.00  0.00    +0.000 HD
BRANCH   4   7
ATOM      7  C   UNL     1      -2.802   9.748  -9.536  0.00  0.00    +0.000 C 
ATOM      8  H   UNL     1      -3.441   9.544 -10.404  0.00  0.00    +0.000 HD
ATOM      9  H   UNL     1      -3.126  10.706  -9.113  0.00  0.00    +0.000 HD
BRANCH   7  10
ATOM     10  C   UNL     1      -2.999   8.653  -8.500  0.00  0.00    +0.000 C 
ATOM     11  H   UNL     1      -4.059   8.566  -8.239  0.00  0.00    +0.000 HD
ATOM     12  H   UNL     1      -2.662   7.685  -8.883  0.00  0.00    +0.000 HD
ATOM     13  H   UNL     1      -2.443   8.874  -7.583  0.00  0.00    +0.000 HD
ENDBRANCH   7  10
ENDBRANCH   4   7
ENDBRANCH   1   4
BRANCH   1  14
ATOM     14  C   UNL     1      -0.332   8.945 -12.135  0.00  0.00    +0.000 C 
ATOM     15  H   UNL     1       0.264   9.400 -12.934  0.00  0.00    +0.000 HD
ATOM     16  H   UNL     1       0.352   8.546 -11.378  0.00  0.00    +0.000 HD
BRANCH  14  18
ATOM     17  O   UNL     1      -1.235   7.627 -13.946  0.00  0.00    +0.000 OA
ATOM     18  C   UNL     1      -1.092   7.769 -12.733  0.00  0.00    +0.000 C 
BRANCH  18  19
ATOM     19  C   UNL     1      -1.693   6.801 -11.728  0.00  0.00    +0.000 C 
ATOM     20  H   UNL     1      -1.343   5.793 -11.974  0.00  0.00    +0.000 HD
ATOM     21  H   UNL     1      -1.324   7.067 -10.732  0.00  0.00    +0.000 HD
BRANCH  19  22
ATOM     22  C   UNL     1      -3.211   6.825 -11.726  0.00  0.00    +0.000 C 
ATOM     23  H   UNL     1      -3.589   7.835 -11.537  0.00  0.00    +0.000 HD
ATOM     24  H   UNL     1      -3.614   6.166 -10.948  0.00  0.00    +0.000 HD
ATOM     25  H   UNL     1      -3.600   6.489 -12.692  0.00  0.00    +0.000 HD
ENDBRANCH  19  22
ENDBRANCH  18  19
ENDBRANCH  14  18
ENDBRANCH   1  14
TORSDOF 7
ENDMDL
MODEL 6
REMARK VINA RESULT:    -3.884     27.635     28.222
REMARK INTER + INTRA:          -5.676
REMARK INTER:                  -5.491
REMARK INTRA:                  -0.185
REMARK UNBOUND:                -0.431
REMARK  Name = 246728
REMARK  7 active torsions:
REMARK  status: ('A' for Active; 'I' for Inactive)
REMARK    1  A    between atoms: C_2  and  C_3
REMARK    2  A    between atoms: C_2  and  C_4
REMARK    3  A    between atoms: C_3  and  C_5
REMARK    4  A    between atoms: C_4  and  C_6
REMARK    5  A    between atoms: C_5  and  C_8
REMARK    6  A    between atoms: C_6  and  C_7
REMARK    7  A    between atoms: C_7  and  C_9
REMARK                            x       y       z     vdW  Elec       q    Type
REMARK                         _______ _______ _______ _____ _____    ______ ____
ROOT
ATOM      1  C   UNL     1     -20.485  -3.628   5.391  0.00  0.00    +0.000 C 
ATOM      2  H   UNL     1     -19.527  -3.530   5.917  0.00  0.00    +0.000 HD
ATOM      3  H   UNL     1     -21.217  -3.964   6.136  0.00  0.00    +0.000 HD
ENDROOT
BRANCH   1   4
ATOM      4  C   UNL     1     -20.363  -4.683   4.287  0.00  0.00    +0.000 C 
ATOM      5  H   UNL     1     -21.107  -5.472   4.449  0.00  0.00    +0.000 HD
ATOM      6  H   UNL     1     -20.584  -4.222   3.316  0.00  0.00    +0.000 HD
BRANCH   4   7
ATOM      7  C   UNL     1     -18.961  -5.294   4.258  0.00  0.00    +0.000 C 
ATOM      8  H   UNL     1     -19.024  -6.377   4.419  0.00  0.00    +0.000 HD
ATOM      9  H   UNL     1     -18.355  -4.879   5.072  0.00  0.00    +0.000 HD
BRANCH   7  10
ATOM     10  C   UNL     1     -18.266  -5.025   2.933  0.00  0.00    +0.000 C 
ATOM     11  H   UNL     1     -17.283  -5.508   2.917  0.00  0.00    +0.000 HD
ATOM     12  H   UNL     1     -18.851  -5.417   2.095  0.00  0.00    +0.000 HD
ATOM     13  H   UNL     1     -18.118  -3.951   2.777  0.00  0.00    +0.000 HD
ENDBRANCH   7  10
ENDBRANCH   4   7
ENDBRANCH   1   4
BRANCH   1  14
ATOM     14  C   UNL     1     -20.903  -2.262   4.847  0.00  0.00    +0.000 C 
ATOM     15  H   UNL     1     -20.379  -2.063   3.906  0.00  0.00    +0.000 HD
ATOM     16  H   UNL     1     -21.980  -2.264   4.649  0.00  0.00    +0.000 HD
BRANCH  14  18
ATOM     17  O   UNL     1     -20.350   0.026   5.390  0.00  0.00    +0.000 OA
ATOM     18  C   UNL     1     -20.613  -1.106   5.794  0.00  0.00    +0.000 C 
BRANCH  18  19
ATOM     19  C   UNL     1     -20.632  -1.452   7.274  0.00  0.00    +0.000 C 
ATOM     20  H   UNL     1     -21.043  -2.462   7.382  0.00  0.00    +0.000 HD
ATOM     21  H   UNL     1     -19.600  -1.452   7.639  0.00  0.00    +0.000 HD
BRANCH  19  22
ATOM     22  C   UNL     1     -21.459  -0.478   8.093  0.00  0.00    +0.000 C 
ATOM     23  H   UNL     1     -22.194  -1.006   8.710  0.00  0.00    +0.000 HD
ATOM     24  H   UNL     1     -22.004   0.218   7.445  0.00  0.00    +0.000 HD
ATOM     25  H   UNL     1     -20.814   0.107   8.756  0.00  0.00    +0.000 HD
ENDBRANCH  19  22
ENDBRANCH  18  19
ENDBRANCH  14  18
ENDBRANCH   1  14
TORSDOF 7
ENDMDL
MODEL 7
REMARK VINA RESULT:    -3.844     13.587     14.985
REMARK INTER + INTRA:          -5.624
REMARK INTER:                  -5.220
REMARK INTRA:                  -0.404
REMARK UNBOUND:                -0.431
REMARK  Name = 246728
REMARK  7 active torsions:
REMARK  status: ('A' for Active; 'I' for Inactive)
REMARK    1  A    between atoms: C_2  and  C_3
REMARK    2  A    between atoms: C_2  and  C_4
REMARK    3  A    between atoms: C_3  and  C_5
REMARK    4  A    between atoms: C_4  and  C_6
REMARK    5  A    between atoms: C_5  and  C_8
REMARK    6  A    between atoms: C_6  and  C_7
REMARK    7  A    between atoms: C_7  and  C_9
REMARK                            x       y       z     vdW  Elec       q    Type
REMARK                         _______ _______ _______ _____ _____    ______ ____
ROOT
ATOM      1  C   UNL     1      -3.531   6.954 -10.032  0.00  0.00    +0.000 C 
ATOM      2  H   UNL     1      -4.345   7.381 -10.631  0.00  0.00    +0.000 HD
ATOM      3  H   UNL     1      -3.890   5.983  -9.666  0.00  0.00    +0.000 HD
ENDROOT
BRANCH   1   4
ATOM      4  C   UNL     1      -3.232   7.867  -8.840  0.00  0.00    +0.000 C 
ATOM      5  H   UNL     1      -4.171   8.265  -8.437  0.00  0.00    +0.000 HD
ATOM      6  H   UNL     1      -2.759   7.282  -8.042  0.00  0.00    +0.000 HD
BRANCH   4   7
ATOM      7  C   UNL     1      -2.313   9.022  -9.243  0.00  0.00    +0.000 C 
ATOM      8  H   UNL     1      -1.462   8.636  -9.818  0.00  0.00    +0.000 HD
ATOM      9  H   UNL     1      -1.907   9.506  -8.348  0.00  0.00    +0.000 HD
BRANCH   7  10
ATOM     10  C   UNL     1      -3.053  10.055 -10.077  0.00  0.00    +0.000 C 
ATOM     11  H   UNL     1      -3.662  10.696  -9.431  0.00  0.00    +0.000 HD
ATOM     12  H   UNL     1      -2.351  10.693 -10.625  0.00  0.00    +0.000 HD
ATOM     13  H   UNL     1      -3.718   9.574 -10.801  0.00  0.00    +0.000 HD
ENDBRANCH   7  10
ENDBRANCH   4   7
ENDBRANCH   1   4
BRANCH   1  14
ATOM     14  C   UNL     1      -2.308   6.740 -10.924  0.00  0.00    +0.000 C 
ATOM     15  H   UNL     1      -1.504   7.418 -10.615  0.00  0.00    +0.000 HD
ATOM     16  H   UNL     1      -1.952   5.710 -10.813  0.00  0.00    +0.000 HD
BRANCH  14  18
ATOM     17  O   UNL     1      -3.675   6.774 -12.915  0.00  0.00    +0.000 OA
ATOM     18  C   UNL     1      -2.574   6.977 -12.403  0.00  0.00    +0.000 C 
BRANCH  18  19
ATOM     19  C   UNL     1      -1.378   7.446 -13.215  0.00  0.00    +0.000 C 
ATOM     20  H   UNL     1      -0.844   6.562 -13.578  0.00  0.00    +0.000 HD
ATOM     21  H   UNL     1      -1.750   8.010 -14.077  0.00  0.00    +0.000 HD
BRANCH  19  22
ATOM     22  C   UNL     1      -0.430   8.319 -12.413  0.00  0.00    +0.000 C 
ATOM     23  H   UNL     1       0.216   8.909 -13.072  0.00  0.00    +0.000 HD
ATOM     24  H   UNL     1       0.216   7.710 -11.769  0.00  0.00    +0.000 HD
ATOM     25  H   UNL     1      -0.992   9.009 -11.777  0.00  0.00    +0.000 HD
ENDBRANCH  19  22
ENDBRANCH  18  19
ENDBRANCH  14  18
ENDBRANCH   1  14
TORSDOF 7
ENDMDL
MODEL 8
REMARK VINA RESULT:    -3.797      1.774      5.041
REMARK INTER + INTRA:          -5.560
REMARK INTER:                  -5.427
REMARK INTRA:                  -0.133
REMARK UNBOUND:                -0.431
REMARK  Name = 246728
REMARK  7 active torsions:
REMARK  status: ('A' for Active; 'I' for Inactive)
REMARK    1  A    between atoms: C_2  and  C_3
REMARK    2  A    between atoms: C_2  and  C_4
REMARK    3  A    between atoms: C_3  and  C_5
REMARK    4  A    between atoms: C_4  and  C_6
REMARK    5  A    between atoms: C_5  and  C_8
REMARK    6  A    between atoms: C_6  and  C_7
REMARK    7  A    between atoms: C_7  and  C_9
REMARK                            x       y       z     vdW  Elec       q    Type
REMARK                         _______ _______ _______ _____ _____    ______ ____
ROOT
ATOM      1  C   UNL     1       4.678   9.059   0.700  0.00  0.00    +0.000 C 
ATOM      2  H   UNL     1       5.570   9.272   0.099  0.00  0.00    +0.000 HD
ATOM      3  H   UNL     1       4.321   8.068   0.388  0.00  0.00    +0.000 HD
ENDROOT
BRANCH   1   4
ATOM      4  C   UNL     1       3.595  10.102   0.407  0.00  0.00    +0.000 C 
ATOM      5  H   UNL     1       2.677   9.599   0.081  0.00  0.00    +0.000 HD
ATOM      6  H   UNL     1       3.356  10.648   1.328  0.00  0.00    +0.000 HD
BRANCH   4   7
ATOM      7  C   UNL     1       4.054  11.088  -0.669  0.00  0.00    +0.000 C 
ATOM      8  H   UNL     1       5.025  10.775  -1.071  0.00  0.00    +0.000 HD
ATOM      9  H   UNL     1       4.189  12.083  -0.230  0.00  0.00    +0.000 HD
BRANCH   7  10
ATOM     10  C   UNL     1       3.047  11.178  -1.805  0.00  0.00    +0.000 C 
ATOM     11  H   UNL     1       2.208  11.820  -1.517  0.00  0.00    +0.000 HD
ATOM     12  H   UNL     1       3.507  11.601  -2.704  0.00  0.00    +0.000 HD
ATOM     13  H   UNL     1       2.648  10.190  -2.055  0.00  0.00    +0.000 HD
ENDBRANCH   7  10
ENDBRANCH   4   7
ENDBRANCH   1   4
BRANCH   1  14
ATOM     14  C   UNL     1       5.063   9.018   2.179  0.00  0.00    +0.000 C 
ATOM     15  H   UNL     1       5.190  10.040   2.555  0.00  0.00    +0.000 HD
ATOM     16  H   UNL     1       4.262   8.537   2.750  0.00  0.00    +0.000 HD
BRANCH  14  18
ATOM     17  O   UNL     1       7.459   8.710   2.179  0.00  0.00    +0.000 OA
ATOM     18  C   UNL     1       6.350   8.256   2.460  0.00  0.00    +0.000 C 
BRANCH  18  19
ATOM     19  C   UNL     1       6.173   6.879   3.079  0.00  0.00    +0.000 C 
ATOM     20  H   UNL     1       5.895   6.181   2.283  0.00  0.00    +0.000 HD
ATOM     21  H   UNL     1       7.134   6.567   3.501  0.00  0.00    +0.000 HD
BRANCH  19  22
ATOM     22  C   UNL     1       5.114   6.857   4.167  0.00  0.00    +0.000 C 
ATOM     23  H   UNL     1       4.153   7.226   3.789  0.00  0.00    +0.000 HD
ATOM     24  H   UNL     1       5.405   7.490   5.013  0.00  0.00    +0.000 HD
ATOM     25  H   UNL     1       4.967   5.838   4.537  0.00  0.00    +0.000 HD
ENDBRANCH  19  22
ENDBRANCH  18  19
ENDBRANCH  14  18
ENDBRANCH   1  14
TORSDOF 7
ENDMDL
MODEL 9
REMARK VINA RESULT:    -3.770     13.767     14.803
REMARK INTER + INTRA:          -5.523
REMARK INTER:                  -5.246
REMARK INTRA:                  -0.277
REMARK UNBOUND:                -0.431
REMARK  Name = 246728
REMARK  7 active torsions:
REMARK  status: ('A' for Active; 'I' for Inactive)
REMARK    1  A    between atoms: C_2  and  C_3
REMARK    2  A    between atoms: C_2  and  C_4
REMARK    3  A    between atoms: C_3  and  C_5
REMARK    4  A    between atoms: C_4  and  C_6
REMARK    5  A    between atoms: C_5  and  C_8
REMARK    6  A    between atoms: C_6  and  C_7
REMARK    7  A    between atoms: C_7  and  C_9
REMARK                            x       y       z     vdW  Elec       q    Type
REMARK                         _______ _______ _______ _____ _____    ______ ____
ROOT
ATOM      1  C   UNL     1      -3.218   6.909  -9.088  0.00  0.00    +0.000 C 
ATOM      2  H   UNL     1      -2.501   6.430  -8.410  0.00  0.00    +0.000 HD
ATOM      3  H   UNL     1      -3.204   7.981  -8.848  0.00  0.00    +0.000 HD
ENDROOT
BRANCH   1   4
ATOM      4  C   UNL     1      -4.622   6.352  -8.835  0.00  0.00    +0.000 C 
ATOM      5  H   UNL     1      -4.546   5.336  -8.429  0.00  0.00    +0.000 HD
ATOM      6  H   UNL     1      -5.128   6.966  -8.080  0.00  0.00    +0.000 HD
BRANCH   4   7
ATOM      7  C   UNL     1      -5.450   6.334 -10.121  0.00  0.00    +0.000 C 
ATOM      8  H   UNL     1      -4.951   5.716 -10.877  0.00  0.00    +0.000 HD
ATOM      9  H   UNL     1      -5.527   7.348 -10.530  0.00  0.00    +0.000 HD
BRANCH   7  10
ATOM     10  C   UNL     1      -6.848   5.790  -9.873  0.00  0.00    +0.000 C 
ATOM     11  H   UNL     1      -7.425   6.493  -9.263  0.00  0.00    +0.000 HD
ATOM     12  H   UNL     1      -7.384   5.640 -10.816  0.00  0.00    +0.000 HD
ATOM     13  H   UNL     1      -6.810   4.833  -9.343  0.00  0.00    +0.000 HD
ENDBRANCH   7  10
ENDBRANCH   4   7
ENDBRANCH   1   4
BRANCH   1  14
ATOM     14  C   UNL     1      -2.761   6.705 -10.532  0.00  0.00    +0.000 C 
ATOM     15  H   UNL     1      -2.046   5.875 -10.578  0.00  0.00    +0.000 HD
ATOM     16  H   UNL     1      -3.625   6.450 -11.154  0.00  0.00    +0.000 HD
BRANCH  14  18
ATOM     17  O   UNL     1      -1.538   7.892 -12.244  0.00  0.00    +0.000 OA
ATOM     18  C   UNL     1      -2.095   7.927 -11.147  0.00  0.00    +0.000 C 
BRANCH  18  19
ATOM     19  C   UNL     1      -2.133   9.188 -10.299  0.00  0.00    +0.000 C 
ATOM     20  H   UNL     1      -3.114   9.656 -10.427  0.00  0.00    +0.000 HD
ATOM     21  H   UNL     1      -2.016   8.898  -9.250  0.00  0.00    +0.000 HD
BRANCH  19  22
ATOM     22  C   UNL     1      -1.046  10.180 -10.673  0.00  0.00    +0.000 C 
ATOM     23  H   UNL     1      -1.475  11.147 -10.954  0.00  0.00    +0.000 HD
ATOM     24  H   UNL     1      -0.456   9.816 -11.523  0.00  0.00    +0.000 HD
ATOM     25  H   UNL     1      -0.367  10.338  -9.830  0.00  0.00    +0.000 HD
ENDBRANCH  19  22
ENDBRANCH  18  19
ENDBRANCH  14  18
ENDBRANCH   1  14
TORSDOF 7
ENDMDL
MODEL 10
REMARK VINA RESULT:    -3.739     14.211     14.788
REMARK INTER + INTRA:          -5.482
REMARK INTER:                  -5.051
REMARK INTRA:                  -0.431
REMARK UNBOUND:                -0.431
REMARK  Name = 246728
REMARK  7 active torsions:
REMARK  status: ('A' for Active; 'I' for Inactive)
REMARK    1  A    between atoms: C_2  and  C_3
REMARK    2  A    between atoms: C_2  and  C_4
REMARK    3  A    between atoms: C_3  and  C_5
REMARK    4  A    between atoms: C_4  and  C_6
REMARK    5  A    between atoms: C_5  and  C_8
REMARK    6  A    between atoms: C_6  and  C_7
REMARK    7  A    between atoms: C_7  and  C_9
REMARK                            x       y       z     vdW  Elec       q    Type
REMARK                         _______ _______ _______ _____ _____    ______ ____
ROOT
ATOM      1  C   UNL     1      -2.096   6.811 -11.633  0.00  0.00    +0.000 C 
ATOM      2  H   UNL     1      -2.900   6.961 -12.364  0.00  0.00    +0.000 HD
ATOM      3  H   UNL     1      -1.694   5.805 -11.813  0.00  0.00    +0.000 HD
ENDROOT
BRANCH   1   4
ATOM      4  C   UNL     1      -2.666   6.883 -10.214  0.00  0.00    +0.000 C 
ATOM      5  H   UNL     1      -2.249   6.070  -9.608  0.00  0.00    +0.000 HD
ATOM      6  H   UNL     1      -2.360   7.826  -9.745  0.00  0.00    +0.000 HD
BRANCH   4   7
ATOM      7  C   UNL     1      -4.193   6.788 -10.225  0.00  0.00    +0.000 C 
ATOM      8  H   UNL     1      -4.514   6.053 -10.973  0.00  0.00    +0.000 HD
ATOM      9  H   UNL     1      -4.625   7.753 -10.513  0.00  0.00    +0.000 HD
BRANCH   7  10
ATOM     10  C   UNL     1      -4.735   6.386  -8.863  0.00  0.00    +0.000 C 
ATOM     11  H   UNL     1      -4.346   7.057  -8.089  0.00  0.00    +0.000 HD
ATOM     12  H   UNL     1      -5.828   6.442  -8.843  0.00  0.00    +0.000 HD
ATOM     13  H   UNL     1      -4.437   5.365  -8.607  0.00  0.00    +0.000 HD
ENDBRANCH   7  10
ENDBRANCH   4   7
ENDBRANCH   1   4
BRANCH   1  14
ATOM     14  C   UNL     1      -0.998   7.847 -11.873  0.00  0.00    +0.000 C 
ATOM     15  H   UNL     1      -0.155   7.653 -11.200  0.00  0.00    +0.000 HD
ATOM     16  H   UNL     1      -0.641   7.767 -12.906  0.00  0.00    +0.000 HD
BRANCH  14  18
ATOM     17  O   UNL     1      -1.025   9.971 -10.723  0.00  0.00    +0.000 OA
ATOM     18  C   UNL     1      -1.447   9.285 -11.653  0.00  0.00    +0.000 C 
BRANCH  18  19
ATOM     19  C   UNL     1      -2.482   9.804 -12.638  0.00  0.00    +0.000 C 
ATOM     20  H   UNL     1      -2.100  10.732 -13.076  0.00  0.00    +0.000 HD
ATOM     21  H   UNL     1      -2.598   9.062 -13.435  0.00  0.00    +0.000 HD
BRANCH  19  22
ATOM     22  C   UNL     1      -3.830  10.065 -11.991  0.00  0.00    +0.000 C 
ATOM     23  H   UNL     1      -4.486  10.630 -12.661  0.00  0.00    +0.000 HD
ATOM     24  H   UNL     1      -3.717  10.643 -11.067  0.00  0.00    +0.000 HD
ATOM     25  H   UNL     1      -4.324   9.121 -11.744  0.00  0.00    +0.000 HD
ENDBRANCH  19  22
ENDBRANCH  18  19
ENDBRANCH  14  18
ENDBRANCH   1  14
TORSDOF 7
ENDMDL
