MODEL 1
REMARK VINA RESULT:    -4.431      0.000      0.000
REMARK INTER + INTRA:          -6.358
REMARK INTER:                  -5.776
REMARK INTRA:                  -0.582
REMARK UNBOUND:                -0.243
REMARK  Name = 11527
REMARK  8 active torsions:
REMARK  status: ('A' for Active; 'I' for Inactive)
REMARK    1  A    between atoms: O_1  and  C_4
REMARK    2  A    between atoms: C_2  and  C_3
REMARK    3  A    between atoms: C_2  and  C_4
REMARK    4  A    between atoms: C_3  and  C_5
REMARK    5  A    between atoms: C_4  and  C_6
REMARK    6  A    between atoms: C_5  and  C_7
REMARK    7  A    between atoms: C_6  and  C_8
REMARK    8  A    between atoms: C_7  and  C_9
REMARK                            x       y       z     vdW  Elec       q    Type
REMARK                         _______ _______ _______ _____ _____    ______ ____
ROOT
ATOM      1  C   UNL     1       4.139   9.176   0.212  0.00  0.00    +0.000 C 
ATOM      2  H   UNL     1       3.753   9.311  -0.807  0.00  0.00    +0.000 HD
ATOM      3  H   UNL     1       3.475   8.438   0.678  0.00  0.00    +0.000 HD
ENDROOT
BRANCH   1   4
ATOM      4  C   UNL     1       5.565   8.612   0.159  0.00  0.00    +0.000 C 
ATOM      5  H   UNL     1       5.855   8.441  -0.885  0.00  0.00    +0.000 HD
ATOM      6  H   UNL     1       5.609   7.646   0.675  0.00  0.00    +0.000 HD
BRANCH   4   7
ATOM      7  C   UNL     1       6.560   9.570   0.820  0.00  0.00    +0.000 C 
ATOM      8  H   UNL     1       7.066   9.054   1.646  0.00  0.00    +0.000 HD
ATOM      9  H   UNL     1       6.011  10.411   1.262  0.00  0.00    +0.000 HD
BRANCH   7  10
ATOM     10  C   UNL     1       7.614  10.113  -0.148  0.00  0.00    +0.000 C 
ATOM     11  H   UNL     1       8.411  10.604   0.421  0.00  0.00    +0.000 HD
ATOM     12  H   UNL     1       8.076   9.277  -0.687  0.00  0.00    +0.000 HD
BRANCH  10  13
ATOM     13  C   UNL     1       7.054  11.099  -1.162  0.00  0.00    +0.000 C 
ATOM     14  H   UNL     1       7.863  11.523  -1.766  0.00  0.00    +0.000 HD
ATOM     15  H   UNL     1       6.535  11.921  -0.661  0.00  0.00    +0.000 HD
ATOM     16  H   UNL     1       6.347  10.606  -1.837  0.00  0.00    +0.000 HD
ENDBRANCH  10  13
ENDBRANCH   7  10
ENDBRANCH   4   7
ENDBRANCH   1   4
BRANCH   1  17
ATOM     17  C   UNL     1       4.012  10.501   0.978  0.00  0.00    +0.000 C 
ATOM     18  H   UNL     1       4.993  10.772   1.388  0.00  0.00    +0.000 HD
BRANCH  17  19
ATOM     19  C   UNL     1       3.501  11.655   0.110  0.00  0.00    +0.000 C 
ATOM     20  H   UNL     1       4.213  12.488   0.144  0.00  0.00    +0.000 HD
ATOM     21  H   UNL     1       2.540  12.024   0.485  0.00  0.00    +0.000 HD
BRANCH  19  22
ATOM     22  C   UNL     1       3.322  11.241  -1.345  0.00  0.00    +0.000 C 
ATOM     23  H   UNL     1       4.257  10.849  -1.759  0.00  0.00    +0.000 HD
ATOM     24  H   UNL     1       2.563  10.457  -1.423  0.00  0.00    +0.000 HD
ATOM     25  H   UNL     1       2.997  12.082  -1.966  0.00  0.00    +0.000 HD
ENDBRANCH  19  22
ENDBRANCH  17  19
BRANCH  17  26
ATOM     26  O   UNL     1       3.132  10.331   2.088  0.00  0.00    +0.000 OA
ATOM     27  H   UNL     1       3.364   9.491   2.521  0.00  0.00    +0.000 HD
ENDBRANCH  17  26
ENDBRANCH   1  17
TORSDOF 8
ENDMDL
MODEL 2
REMARK VINA RESULT:    -4.426     15.012     16.102
REMARK INTER + INTRA:          -6.351
REMARK INTER:                  -6.050
REMARK INTRA:                  -0.302
REMARK UNBOUND:                -0.243
REMARK  Name = 11527
REMARK  8 active torsions:
REMARK  status: ('A' for Active; 'I' for Inactive)
REMARK    1  A    between atoms: O_1  and  C_4
REMARK    2  A    between atoms: C_2  and  C_3
REMARK    3  A    between atoms: C_2  and  C_4
REMARK    4  A    between atoms: C_3  and  C_5
REMARK    5  A    between atoms: C_4  and  C_6
REMARK    6  A    between atoms: C_5  and  C_7
REMARK    7  A    between atoms: C_6  and  C_8
REMARK    8  A    between atoms: C_7  and  C_9
REMARK                            x       y       z     vdW  Elec       q    Type
REMARK                         _______ _______ _______ _____ _____    ______ ____
ROOT
ATOM      1  C   UNL     1      -8.086   6.221  -6.348  0.00  0.00    +0.000 C 
ATOM      2  H   UNL     1      -7.928   5.369  -7.021  0.00  0.00    +0.000 HD
ATOM      3  H   UNL     1      -7.134   6.767  -6.343  0.00  0.00    +0.000 HD
ENDROOT
BRANCH   1   4
ATOM      4  C   UNL     1      -9.187   7.131  -6.908  0.00  0.00    +0.000 C 
ATOM      5  H   UNL     1      -9.799   6.570  -7.624  0.00  0.00    +0.000 HD
ATOM      6  H   UNL     1      -8.742   7.975  -7.447  0.00  0.00    +0.000 HD
BRANCH   4   7
ATOM      7  C   UNL     1     -10.075   7.675  -5.785  0.00  0.00    +0.000 C 
ATOM      8  H   UNL     1      -9.634   7.413  -4.815  0.00  0.00    +0.000 HD
ATOM      9  H   UNL     1     -11.055   7.184  -5.830  0.00  0.00    +0.000 HD
BRANCH   7  10
ATOM     10  C   UNL     1     -10.272   9.192  -5.849  0.00  0.00    +0.000 C 
ATOM     11  H   UNL     1     -11.115   9.475  -5.209  0.00  0.00    +0.000 HD
ATOM     12  H   UNL     1      -9.384   9.690  -5.446  0.00  0.00    +0.000 HD
BRANCH  10  13
ATOM     13  C   UNL     1     -10.528   9.710  -7.256  0.00  0.00    +0.000 C 
ATOM     14  H   UNL     1     -10.269   8.946  -7.996  0.00  0.00    +0.000 HD
ATOM     15  H   UNL     1      -9.925  10.601  -7.459  0.00  0.00    +0.000 HD
ATOM     16  H   UNL     1     -11.582   9.971  -7.391  0.00  0.00    +0.000 HD
ENDBRANCH  10  13
ENDBRANCH   7  10
ENDBRANCH   4   7
ENDBRANCH   1   4
BRANCH   1  17
ATOM     17  C   UNL     1      -8.358   5.700  -4.929  0.00  0.00    +0.000 C 
ATOM     18  H   UNL     1      -9.352   6.036  -4.610  0.00  0.00    +0.000 HD
BRANCH  17  19
ATOM     19  C   UNL     1      -8.293   4.173  -4.823  0.00  0.00    +0.000 C 
ATOM     20  H   UNL     1      -7.960   3.885  -3.819  0.00  0.00    +0.000 HD
ATOM     21  H   UNL     1      -7.573   3.767  -5.542  0.00  0.00    +0.000 HD
BRANCH  19  22
ATOM     22  C   UNL     1      -9.647   3.523  -5.079  0.00  0.00    +0.000 C 
ATOM     23  H   UNL     1      -9.558   2.701  -5.797  0.00  0.00    +0.000 HD
ATOM     24  H   UNL     1     -10.051   3.117  -4.148  0.00  0.00    +0.000 HD
ATOM     25  H   UNL     1     -10.372   4.245  -5.470  0.00  0.00    +0.000 HD
ENDBRANCH  19  22
ENDBRANCH  17  19
BRANCH  17  26
ATOM     26  O   UNL     1      -7.416   6.268  -4.020  0.00  0.00    +0.000 OA
ATOM     27  H   UNL     1      -7.868   6.981  -3.538  0.00  0.00    +0.000 HD
ENDBRANCH  17  26
ENDBRANCH   1  17
TORSDOF 8
ENDMDL
MODEL 3
REMARK VINA RESULT:    -4.394     28.246     29.075
REMARK INTER + INTRA:          -6.307
REMARK INTER:                  -6.081
REMARK INTRA:                  -0.226
REMARK UNBOUND:                -0.243
REMARK  Name = 11527
REMARK  8 active torsions:
REMARK  status: ('A' for Active; 'I' for Inactive)
REMARK    1  A    between atoms: O_1  and  C_4
REMARK    2  A    between atoms: C_2  and  C_3
REMARK    3  A    between atoms: C_2  and  C_4
REMARK    4  A    between atoms: C_3  and  C_5
REMARK    5  A    between atoms: C_4  and  C_6
REMARK    6  A    between atoms: C_5  and  C_7
REMARK    7  A    between atoms: C_6  and  C_8
REMARK    8  A    between atoms: C_7  and  C_9
REMARK                            x       y       z     vdW  Elec       q    Type
REMARK                         _______ _______ _______ _____ _____    ______ ____
ROOT
ATOM      1  C   UNL     1     -20.273  -4.085   4.968  0.00  0.00    +0.000 C 
ATOM      2  H   UNL     1     -19.706  -3.438   5.650  0.00  0.00    +0.000 HD
ATOM      3  H   UNL     1     -21.127  -4.447   5.556  0.00  0.00    +0.000 HD
ENDROOT
BRANCH   1   4
ATOM      4  C   UNL     1     -20.789  -3.265   3.779  0.00  0.00    +0.000 C 
ATOM      5  H   UNL     1     -21.674  -3.752   3.352  0.00  0.00    +0.000 HD
ATOM      6  H   UNL     1     -20.028  -3.219   2.993  0.00  0.00    +0.000 HD
BRANCH   4   7
ATOM      7  C   UNL     1     -21.142  -1.838   4.208  0.00  0.00    +0.000 C 
ATOM      8  H   UNL     1     -22.174  -1.614   3.909  0.00  0.00    +0.000 HD
ATOM      9  H   UNL     1     -20.497  -1.130   3.671  0.00  0.00    +0.000 HD
BRANCH   7  10
ATOM     10  C   UNL     1     -20.997  -1.603   5.713  0.00  0.00    +0.000 C 
ATOM     11  H   UNL     1     -21.983  -1.660   6.186  0.00  0.00    +0.000 HD
ATOM     12  H   UNL     1     -20.388  -2.405   6.147  0.00  0.00    +0.000 HD
BRANCH  10  13
ATOM     13  C   UNL     1     -20.362  -0.265   6.059  0.00  0.00    +0.000 C 
ATOM     14  H   UNL     1     -19.285  -0.383   6.212  0.00  0.00    +0.000 HD
ATOM     15  H   UNL     1     -20.794   0.146   6.977  0.00  0.00    +0.000 HD
ATOM     16  H   UNL     1     -20.515   0.460   5.254  0.00  0.00    +0.000 HD
ENDBRANCH  10  13
ENDBRANCH   7  10
ENDBRANCH   4   7
ENDBRANCH   1   4
BRANCH   1  17
ATOM     17  C   UNL     1     -19.404  -5.289   4.578  0.00  0.00    +0.000 C 
ATOM     18  H   UNL     1     -20.050  -6.167   4.444  0.00  0.00    +0.000 HD
BRANCH  17  19
ATOM     19  C   UNL     1     -18.601  -5.064   3.292  0.00  0.00    +0.000 C 
ATOM     20  H   UNL     1     -17.540  -5.270   3.477  0.00  0.00    +0.000 HD
ATOM     21  H   UNL     1     -18.685  -4.023   2.963  0.00  0.00    +0.000 HD
BRANCH  19  22
ATOM     22  C   UNL     1     -19.071  -5.967   2.158  0.00  0.00    +0.000 C 
ATOM     23  H   UNL     1     -18.386  -5.914   1.306  0.00  0.00    +0.000 HD
ATOM     24  H   UNL     1     -19.109  -7.007   2.497  0.00  0.00    +0.000 HD
ATOM     25  H   UNL     1     -20.073  -5.693   1.814  0.00  0.00    +0.000 HD
ENDBRANCH  19  22
ENDBRANCH  17  19
BRANCH  17  26
ATOM     26  O   UNL     1     -18.503  -5.596   5.639  0.00  0.00    +0.000 OA
ATOM     27  H   UNL     1     -18.006  -4.786   5.846  0.00  0.00    +0.000 HD
ENDBRANCH  17  26
ENDBRANCH   1  17
TORSDOF 8
ENDMDL
MODEL 4
REMARK VINA RESULT:    -4.270      1.979      2.719
REMARK INTER + INTRA:          -6.136
REMARK INTER:                  -5.855
REMARK INTRA:                  -0.281
REMARK UNBOUND:                -0.243
REMARK  Name = 11527
REMARK  8 active torsions:
REMARK  status: ('A' for Active; 'I' for Inactive)
REMARK    1  A    between atoms: O_1  and  C_4
REMARK    2  A    between atoms: C_2  and  C_3
REMARK    3  A    between atoms: C_2  and  C_4
REMARK    4  A    between atoms: C_3  and  C_5
REMARK    5  A    between atoms: C_4  and  C_6
REMARK    6  A    between atoms: C_5  and  C_7
REMARK    7  A    between atoms: C_6  and  C_8
REMARK    8  A    between atoms: C_7  and  C_9
REMARK                            x       y       z     vdW  Elec       q    Type
REMARK                         _______ _______ _______ _____ _____    ______ ____
ROOT
ATOM      1  C   UNL     1       3.491   9.143   1.981  0.00  0.00    +0.000 C 
ATOM      2  H   UNL     1       3.508   8.216   1.392  0.00  0.00    +0.000 HD
ATOM      3  H   UNL     1       2.437   9.304   2.238  0.00  0.00    +0.000 HD
ENDROOT
BRANCH   1   4
ATOM      4  C   UNL     1       4.303   8.956   3.269  0.00  0.00    +0.000 C 
ATOM      5  H   UNL     1       3.638   9.028   4.137  0.00  0.00    +0.000 HD
ATOM      6  H   UNL     1       5.053   9.750   3.361  0.00  0.00    +0.000 HD
BRANCH   4   7
ATOM      7  C   UNL     1       5.017   7.601   3.277  0.00  0.00    +0.000 C 
ATOM      8  H   UNL     1       4.302   6.813   3.008  0.00  0.00    +0.000 HD
ATOM      9  H   UNL     1       5.362   7.382   4.295  0.00  0.00    +0.000 HD
BRANCH   7  10
ATOM     10  C   UNL     1       6.210   7.538   2.320  0.00  0.00    +0.000 C 
ATOM     11  H   UNL     1       6.729   6.582   2.449  0.00  0.00    +0.000 HD
ATOM     12  H   UNL     1       5.847   7.568   1.286  0.00  0.00    +0.000 HD
BRANCH  10  13
ATOM     13  C   UNL     1       7.208   8.669   2.521  0.00  0.00    +0.000 C 
ATOM     14  H   UNL     1       7.393   9.186   1.574  0.00  0.00    +0.000 HD
ATOM     15  H   UNL     1       8.163   8.285   2.893  0.00  0.00    +0.000 HD
ATOM     16  H   UNL     1       6.828   9.401   3.240  0.00  0.00    +0.000 HD
ENDBRANCH  10  13
ENDBRANCH   7  10
ENDBRANCH   4   7
ENDBRANCH   1   4
BRANCH   1  17
ATOM     17  C   UNL     1       3.962  10.308   1.099  0.00  0.00    +0.000 C 
ATOM     18  H   UNL     1       4.990  10.572   1.375  0.00  0.00    +0.000 HD
BRANCH  17  19
ATOM     19  C   UNL     1       3.918   9.989  -0.399  0.00  0.00    +0.000 C 
ATOM     20  H   UNL     1       3.212   9.171  -0.583  0.00  0.00    +0.000 HD
ATOM     21  H   UNL     1       4.902   9.666  -0.754  0.00  0.00    +0.000 HD
BRANCH  19  22
ATOM     22  C   UNL     1       3.479  11.191  -1.227  0.00  0.00    +0.000 C 
ATOM     23  H   UNL     1       4.345  11.747  -1.600  0.00  0.00    +0.000 HD
ATOM     24  H   UNL     1       2.894  10.859  -2.090  0.00  0.00    +0.000 HD
ATOM     25  H   UNL     1       2.854  11.875  -0.644  0.00  0.00    +0.000 HD
ENDBRANCH  19  22
ENDBRANCH  17  19
BRANCH  17  26
ATOM     26  O   UNL     1       3.157  11.458   1.352  0.00  0.00    +0.000 OA
ATOM     27  H   UNL     1       2.989  11.494   2.309  0.00  0.00    +0.000 HD
ENDBRANCH  17  26
ENDBRANCH   1  17
TORSDOF 8
ENDMDL
MODEL 5
REMARK VINA RESULT:    -4.227      1.271      2.409
REMARK INTER + INTRA:          -6.076
REMARK INTER:                  -5.568
REMARK INTRA:                  -0.508
REMARK UNBOUND:                -0.243
REMARK  Name = 11527
REMARK  8 active torsions:
REMARK  status: ('A' for Active; 'I' for Inactive)
REMARK    1  A    between atoms: O_1  and  C_4
REMARK    2  A    between atoms: C_2  and  C_3
REMARK    3  A    between atoms: C_2  and  C_4
REMARK    4  A    between atoms: C_3  and  C_5
REMARK    5  A    between atoms: C_4  and  C_6
REMARK    6  A    between atoms: C_5  and  C_7
REMARK    7  A    between atoms: C_6  and  C_8
REMARK    8  A    between atoms: C_7  and  C_9
REMARK                            x       y       z     vdW  Elec       q    Type
REMARK                         _______ _______ _______ _____ _____    ______ ____
ROOT
ATOM      1  C   UNL     1       5.378  11.456   0.010  0.00  0.00    +0.000 C 
ATOM      2  H   UNL     1       5.831  11.155   0.964  0.00  0.00    +0.000 HD
ATOM      3  H   UNL     1       5.424  12.553   0.000  0.00  0.00    +0.000 HD
ENDROOT
BRANCH   1   4
ATOM      4  C   UNL     1       6.207  10.905  -1.157  0.00  0.00    +0.000 C 
ATOM      5  H   UNL     1       6.360  11.692  -1.905  0.00  0.00    +0.000 HD
ATOM      6  H   UNL     1       5.670  10.085  -1.648  0.00  0.00    +0.000 HD
BRANCH   4   7
ATOM      7  C   UNL     1       7.562  10.384  -0.671  0.00  0.00    +0.000 C 
ATOM      8  H   UNL     1       8.089  11.185  -0.137  0.00  0.00    +0.000 HD
ATOM      9  H   UNL     1       8.180  10.122  -1.539  0.00  0.00    +0.000 HD
BRANCH   7  10
ATOM     10  C   UNL     1       7.449   9.165   0.248  0.00  0.00    +0.000 C 
ATOM     11  H   UNL     1       8.438   8.924   0.654  0.00  0.00    +0.000 HD
ATOM     12  H   UNL     1       6.806   9.412   1.101  0.00  0.00    +0.000 HD
BRANCH  10  13
ATOM     13  C   UNL     1       6.890   7.933  -0.446  0.00  0.00    +0.000 C 
ATOM     14  H   UNL     1       5.957   7.618   0.033  0.00  0.00    +0.000 HD
ATOM     15  H   UNL     1       7.598   7.100  -0.395  0.00  0.00    +0.000 HD
ATOM     16  H   UNL     1       6.678   8.140  -1.499  0.00  0.00    +0.000 HD
ENDBRANCH  10  13
ENDBRANCH   7  10
ENDBRANCH   4   7
ENDBRANCH   1   4
BRANCH   1  17
ATOM     17  C   UNL     1       3.903  11.030  -0.004  0.00  0.00    +0.000 C 
ATOM     18  H   UNL     1       3.453  11.332  -0.958  0.00  0.00    +0.000 HD
BRANCH  17  19
ATOM     19  C   UNL     1       3.708   9.521   0.181  0.00  0.00    +0.000 C 
ATOM     20  H   UNL     1       4.519   8.979  -0.320  0.00  0.00    +0.000 HD
ATOM     21  H   UNL     1       2.763   9.197  -0.268  0.00  0.00    +0.000 HD
BRANCH  19  22
ATOM     22  C   UNL     1       3.704   9.121   1.651  0.00  0.00    +0.000 C 
ATOM     23  H   UNL     1       3.787  10.001   2.297  0.00  0.00    +0.000 HD
ATOM     24  H   UNL     1       2.771   8.606   1.898  0.00  0.00    +0.000 HD
ATOM     25  H   UNL     1       4.530   8.442   1.885  0.00  0.00    +0.000 HD
ENDBRANCH  19  22
ENDBRANCH  17  19
BRANCH  17  26
ATOM     26  O   UNL     1       3.194  11.718   1.025  0.00  0.00    +0.000 OA
ATOM     27  H   UNL     1       2.880  12.560   0.652  0.00  0.00    +0.000 HD
ENDBRANCH  17  26
ENDBRANCH   1  17
TORSDOF 8
ENDMDL
MODEL 6
REMARK VINA RESULT:    -4.194     12.467     13.807
REMARK INTER + INTRA:          -6.030
REMARK INTER:                  -5.484
REMARK INTRA:                  -0.547
REMARK UNBOUND:                -0.243
REMARK  Name = 11527
REMARK  8 active torsions:
REMARK  status: ('A' for Active; 'I' for Inactive)
REMARK    1  A    between atoms: O_1  and  C_4
REMARK    2  A    between atoms: C_2  and  C_3
REMARK    3  A    between atoms: C_2  and  C_4
REMARK    4  A    between atoms: C_3  and  C_5
REMARK    5  A    between atoms: C_4  and  C_6
REMARK    6  A    between atoms: C_5  and  C_7
REMARK    7  A    between atoms: C_6  and  C_8
REMARK    8  A    between atoms: C_7  and  C_9
REMARK                            x       y       z     vdW  Elec       q    Type
REMARK                         _______ _______ _______ _____ _____    ______ ____
ROOT
ATOM      1  C   UNL     1      -1.439   9.556 -11.709  0.00  0.00    +0.000 C 
ATOM      2  H   UNL     1      -2.460   9.328 -12.040  0.00  0.00    +0.000 HD
ATOM      3  H   UNL     1      -1.115  10.401 -12.331  0.00  0.00    +0.000 HD
ENDROOT
BRANCH   1   4
ATOM      4  C   UNL     1      -1.451   9.987 -10.237  0.00  0.00    +0.000 C 
ATOM      5  H   UNL     1      -1.187  11.049 -10.162  0.00  0.00    +0.000 HD
ATOM      6  H   UNL     1      -0.702   9.421  -9.671  0.00  0.00    +0.000 HD
BRANCH   4   7
ATOM      7  C   UNL     1      -2.827   9.751  -9.607  0.00  0.00    +0.000 C 
ATOM      8  H   UNL     1      -3.554   9.525 -10.398  0.00  0.00    +0.000 HD
ATOM      9  H   UNL     1      -3.164  10.676  -9.122  0.00  0.00    +0.000 HD
BRANCH   7  10
ATOM     10  C   UNL     1      -2.837   8.615  -8.581  0.00  0.00    +0.000 C 
ATOM     11  H   UNL     1      -1.811   8.408  -8.259  0.00  0.00    +0.000 HD
ATOM     12  H   UNL     1      -3.392   8.936  -7.692  0.00  0.00    +0.000 HD
BRANCH  10  13
ATOM     13  C   UNL     1      -3.456   7.329  -9.107  0.00  0.00    +0.000 C 
ATOM     14  H   UNL     1      -3.766   7.455 -10.150  0.00  0.00    +0.000 HD
ATOM     15  H   UNL     1      -4.337   7.051  -8.521  0.00  0.00    +0.000 HD
ATOM     16  H   UNL     1      -2.739   6.504  -9.063  0.00  0.00    +0.000 HD
ENDBRANCH  10  13
ENDBRANCH   7  10
ENDBRANCH   4   7
ENDBRANCH   1   4
BRANCH   1  17
ATOM     17  C   UNL     1      -0.532   8.354 -12.009  0.00  0.00    +0.000 C 
ATOM     18  H   UNL     1       0.199   8.247 -11.198  0.00  0.00    +0.000 HD
BRANCH  17  19
ATOM     19  C   UNL     1      -1.302   7.038 -12.159  0.00  0.00    +0.000 C 
ATOM     20  H   UNL     1      -1.398   6.551 -11.181  0.00  0.00    +0.000 HD
ATOM     21  H   UNL     1      -0.766   6.350 -12.822  0.00  0.00    +0.000 HD
BRANCH  19  22
ATOM     22  C   UNL     1      -2.701   7.255 -12.721  0.00  0.00    +0.000 C 
ATOM     23  H   UNL     1      -2.854   6.666 -13.632  0.00  0.00    +0.000 HD
ATOM     24  H   UNL     1      -3.453   6.945 -11.989  0.00  0.00    +0.000 HD
ATOM     25  H   UNL     1      -2.881   8.308 -12.957  0.00  0.00    +0.000 HD
ENDBRANCH  19  22
ENDBRANCH  17  19
BRANCH  17  26
ATOM     26  O   UNL     1       0.208   8.596 -13.204  0.00  0.00    +0.000 OA
ATOM     27  H   UNL     1      -0.432   8.754 -13.919  0.00  0.00    +0.000 HD
ENDBRANCH  17  26
ENDBRANCH   1  17
TORSDOF 8
ENDMDL
MODEL 7
REMARK VINA RESULT:    -4.136      2.503      4.363
REMARK INTER + INTRA:          -5.950
REMARK INTER:                  -5.834
REMARK INTRA:                  -0.116
REMARK UNBOUND:                -0.243
REMARK  Name = 11527
REMARK  8 active torsions:
REMARK  status: ('A' for Active; 'I' for Inactive)
REMARK    1  A    between atoms: O_1  and  C_4
REMARK    2  A    between atoms: C_2  and  C_3
REMARK    3  A    between atoms: C_2  and  C_4
REMARK    4  A    between atoms: C_3  and  C_5
REMARK    5  A    between atoms: C_4  and  C_6
REMARK    6  A    between atoms: C_5  and  C_7
REMARK    7  A    between atoms: C_6  and  C_8
REMARK    8  A    between atoms: C_7  and  C_9
REMARK                            x       y       z     vdW  Elec       q    Type
REMARK                         _______ _______ _______ _____ _____    ______ ____
ROOT
ATOM      1  C   UNL     1       4.772   8.875   1.777  0.00  0.00    +0.000 C 
ATOM      2  H   UNL     1       4.908   8.182   0.937  0.00  0.00    +0.000 HD
ATOM      3  H   UNL     1       5.731   9.397   1.881  0.00  0.00    +0.000 HD
ENDROOT
BRANCH   1   4
ATOM      4  C   UNL     1       3.675   9.894   1.440  0.00  0.00    +0.000 C 
ATOM      5  H   UNL     1       3.183  10.224   2.362  0.00  0.00    +0.000 HD
ATOM      6  H   UNL     1       2.911   9.430   0.807  0.00  0.00    +0.000 HD
BRANCH   4   7
ATOM      7  C   UNL     1       4.258  11.104   0.705  0.00  0.00    +0.000 C 
ATOM      8  H   UNL     1       5.137  10.790   0.128  0.00  0.00    +0.000 HD
ATOM      9  H   UNL     1       4.608  11.839   1.441  0.00  0.00    +0.000 HD
BRANCH   7  10
ATOM     10  C   UNL     1       3.259  11.779  -0.239  0.00  0.00    +0.000 C 
ATOM     11  H   UNL     1       2.257  11.736   0.202  0.00  0.00    +0.000 HD
ATOM     12  H   UNL     1       3.517  12.839  -0.342  0.00  0.00    +0.000 HD
BRANCH  10  13
ATOM     13  C   UNL     1       3.214  11.150  -1.623  0.00  0.00    +0.000 C 
ATOM     14  H   UNL     1       3.182  10.058  -1.544  0.00  0.00    +0.000 HD
ATOM     15  H   UNL     1       4.098  11.425  -2.206  0.00  0.00    +0.000 HD
ATOM     16  H   UNL     1       2.325  11.477  -2.172  0.00  0.00    +0.000 HD
ENDBRANCH  10  13
ENDBRANCH   7  10
ENDBRANCH   4   7
ENDBRANCH   1   4
BRANCH   1  17
ATOM     17  C   UNL     1       4.514   8.068   3.058  0.00  0.00    +0.000 C 
ATOM     18  H   UNL     1       3.531   7.585   2.983  0.00  0.00    +0.000 HD
BRANCH  17  19
ATOM     19  C   UNL     1       5.575   6.995   3.321  0.00  0.00    +0.000 C 
ATOM     20  H   UNL     1       6.413   7.125   2.625  0.00  0.00    +0.000 HD
ATOM     21  H   UNL     1       5.161   5.995   3.159  0.00  0.00    +0.000 HD
BRANCH  19  22
ATOM     22  C   UNL     1       6.121   7.066   4.742  0.00  0.00    +0.000 C 
ATOM     23  H   UNL     1       5.596   7.829   5.326  0.00  0.00    +0.000 HD
ATOM     24  H   UNL     1       5.987   6.104   5.244  0.00  0.00    +0.000 HD
ATOM     25  H   UNL     1       7.191   7.300   4.750  0.00  0.00    +0.000 HD
ENDBRANCH  19  22
ENDBRANCH  17  19
BRANCH  17  26
ATOM     26  O   UNL     1       4.458   8.949   4.178  0.00  0.00    +0.000 OA
ATOM     27  H   UNL     1       5.351   8.997   4.559  0.00  0.00    +0.000 HD
ENDBRANCH  17  26
ENDBRANCH   1  17
TORSDOF 8
ENDMDL
MODEL 8
REMARK VINA RESULT:    -4.014     12.568     13.878
REMARK INTER + INTRA:          -5.783
REMARK INTER:                  -5.581
REMARK INTRA:                  -0.202
REMARK UNBOUND:                -0.243
REMARK  Name = 11527
REMARK  8 active torsions:
REMARK  status: ('A' for Active; 'I' for Inactive)
REMARK    1  A    between atoms: O_1  and  C_4
REMARK    2  A    between atoms: C_2  and  C_3
REMARK    3  A    between atoms: C_2  and  C_4
REMARK    4  A    between atoms: C_3  and  C_5
REMARK    5  A    between atoms: C_4  and  C_6
REMARK    6  A    between atoms: C_5  and  C_7
REMARK    7  A    between atoms: C_6  and  C_8
REMARK    8  A    between atoms: C_7  and  C_9
REMARK                            x       y       z     vdW  Elec       q    Type
REMARK                         _______ _______ _______ _____ _____    ______ ____
ROOT
ATOM      1  C   UNL     1      -0.995  10.118 -10.889  0.00  0.00    +0.000 C 
ATOM      2  H   UNL     1      -1.384  11.121 -11.109  0.00  0.00    +0.000 HD
ATOM      3  H   UNL     1       0.006  10.282 -10.469  0.00  0.00    +0.000 HD
ENDROOT
BRANCH   1   4
ATOM      4  C   UNL     1      -1.879   9.435  -9.838  0.00  0.00    +0.000 C 
ATOM      5  H   UNL     1      -2.362  10.194  -9.213  0.00  0.00    +0.000 HD
ATOM      6  H   UNL     1      -1.268   8.807  -9.180  0.00  0.00    +0.000 HD
BRANCH   4   7
ATOM      7  C   UNL     1      -2.946   8.559 -10.503  0.00  0.00    +0.000 C 
ATOM      8  H   UNL     1      -2.862   8.651 -11.594  0.00  0.00    +0.000 HD
ATOM      9  H   UNL     1      -3.941   8.934 -10.230  0.00  0.00    +0.000 HD
BRANCH   7  10
ATOM     10  C   UNL     1      -2.844   7.082 -10.118  0.00  0.00    +0.000 C 
ATOM     11  H   UNL     1      -3.139   6.463 -10.973  0.00  0.00    +0.000 HD
ATOM     12  H   UNL     1      -1.800   6.837  -9.893  0.00  0.00    +0.000 HD
BRANCH  10  13
ATOM     13  C   UNL     1      -3.704   6.707  -8.921  0.00  0.00    +0.000 C 
ATOM     14  H   UNL     1      -4.589   6.152  -9.247  0.00  0.00    +0.000 HD
ATOM     15  H   UNL     1      -4.039   7.601  -8.386  0.00  0.00    +0.000 HD
ATOM     16  H   UNL     1      -3.146   6.077  -8.221  0.00  0.00    +0.000 HD
ENDBRANCH  10  13
ENDBRANCH   7  10
ENDBRANCH   4   7
ENDBRANCH   1   4
BRANCH   1  17
ATOM     17  C   UNL     1      -0.851   9.335 -12.202  0.00  0.00    +0.000 C 
ATOM     18  H   UNL     1      -1.769   8.761 -12.377  0.00  0.00    +0.000 HD
BRANCH  17  19
ATOM     19  C   UNL     1      -0.587  10.232 -13.415  0.00  0.00    +0.000 C 
ATOM     20  H   UNL     1      -0.202  11.203 -13.082  0.00  0.00    +0.000 HD
ATOM     21  H   UNL     1      -1.514  10.414 -13.969  0.00  0.00    +0.000 HD
BRANCH  19  22
ATOM     22  C   UNL     1       0.431   9.619 -14.369  0.00  0.00    +0.000 C 
ATOM     23  H   UNL     1       1.246   9.139 -13.817  0.00  0.00    +0.000 HD
ATOM     24  H   UNL     1      -0.048   8.858 -14.993  0.00  0.00    +0.000 HD
ATOM     25  H   UNL     1       0.862  10.373 -15.036  0.00  0.00    +0.000 HD
ENDBRANCH  19  22
ENDBRANCH  17  19
BRANCH  17  26
ATOM     26  O   UNL     1       0.211   8.390 -12.083  0.00  0.00    +0.000 OA
ATOM     27  H   UNL     1       0.873   8.768 -11.479  0.00  0.00    +0.000 HD
ENDBRANCH  17  26
ENDBRANCH   1  17
TORSDOF 8
ENDMDL
MODEL 9
REMARK VINA RESULT:    -3.940     13.134     14.726
REMARK INTER + INTRA:          -5.681
REMARK INTER:                  -5.428
REMARK INTRA:                  -0.253
REMARK UNBOUND:                -0.243
REMARK  Name = 11527
REMARK  8 active torsions:
REMARK  status: ('A' for Active; 'I' for Inactive)
REMARK    1  A    between atoms: O_1  and  C_4
REMARK    2  A    between atoms: C_2  and  C_3
REMARK    3  A    between atoms: C_2  and  C_4
REMARK    4  A    between atoms: C_3  and  C_5
REMARK    5  A    between atoms: C_4  and  C_6
REMARK    6  A    between atoms: C_5  and  C_7
REMARK    7  A    between atoms: C_6  and  C_8
REMARK    8  A    between atoms: C_7  and  C_9
REMARK                            x       y       z     vdW  Elec       q    Type
REMARK                         _______ _______ _______ _____ _____    ______ ____
ROOT
ATOM      1  C   UNL     1      -8.675  11.639   6.813  0.00  0.00    +0.000 C 
ATOM      2  H   UNL     1      -8.077  12.559   6.848  0.00  0.00    +0.000 HD
ATOM      3  H   UNL     1      -9.715  11.974   6.705  0.00  0.00    +0.000 HD
ENDROOT
BRANCH   1   4
ATOM      4  C   UNL     1      -8.282  10.808   5.585  0.00  0.00    +0.000 C 
ATOM      5  H   UNL     1      -9.180  10.551   5.011  0.00  0.00    +0.000 HD
ATOM      6  H   UNL     1      -7.811   9.869   5.899  0.00  0.00    +0.000 HD
BRANCH   4   7
ATOM      7  C   UNL     1      -7.302  11.576   4.693  0.00  0.00    +0.000 C 
ATOM      8  H   UNL     1      -7.521  11.357   3.640  0.00  0.00    +0.000 HD
ATOM      9  H   UNL     1      -6.283  11.218   4.885  0.00  0.00    +0.000 HD
BRANCH   7  10
ATOM     10  C   UNL     1      -7.348  13.091   4.905  0.00  0.00    +0.000 C 
ATOM     11  H   UNL     1      -7.705  13.575   3.990  0.00  0.00    +0.000 HD
ATOM     12  H   UNL     1      -8.074  13.324   5.693  0.00  0.00    +0.000 HD
BRANCH  10  13
ATOM     13  C   UNL     1      -6.003  13.691   5.286  0.00  0.00    +0.000 C 
ATOM     14  H   UNL     1      -6.067  14.176   6.265  0.00  0.00    +0.000 HD
ATOM     15  H   UNL     1      -5.688  14.440   4.553  0.00  0.00    +0.000 HD
ATOM     16  H   UNL     1      -5.232  12.917   5.340  0.00  0.00    +0.000 HD
ENDBRANCH  10  13
ENDBRANCH   7  10
ENDBRANCH   4   7
ENDBRANCH   1   4
BRANCH   1  17
ATOM     17  C   UNL     1      -8.537  10.897   8.150  0.00  0.00    +0.000 C 
ATOM     18  H   UNL     1      -9.390  11.154   8.790  0.00  0.00    +0.000 HD
BRANCH  17  19
ATOM     19  C   UNL     1      -8.476   9.374   7.993  0.00  0.00    +0.000 C 
ATOM     20  H   UNL     1      -7.787   9.113   7.181  0.00  0.00    +0.000 HD
ATOM     21  H   UNL     1      -9.462   8.973   7.734  0.00  0.00    +0.000 HD
BRANCH  19  22
ATOM     22  C   UNL     1      -7.996   8.686   9.265  0.00  0.00    +0.000 C 
ATOM     23  H   UNL     1      -8.773   8.030   9.673  0.00  0.00    +0.000 HD
ATOM     24  H   UNL     1      -7.115   8.075   9.052  0.00  0.00    +0.000 HD
ATOM     25  H   UNL     1      -7.719   9.413  10.035  0.00  0.00    +0.000 HD
ENDBRANCH  19  22
ENDBRANCH  17  19
BRANCH  17  26
ATOM     26  O   UNL     1      -7.363  11.341   8.827  0.00  0.00    +0.000 OA
ATOM     27  H   UNL     1      -6.900  11.959   8.236  0.00  0.00    +0.000 HD
ENDBRANCH  17  26
ENDBRANCH   1  17
TORSDOF 8
ENDMDL
MODEL 10
REMARK VINA RESULT:    -3.766      2.292      4.387
REMARK INTER + INTRA:          -5.440
REMARK INTER:                  -5.197
REMARK INTRA:                  -0.243
REMARK UNBOUND:                -0.243
REMARK  Name = 11527
REMARK  8 active torsions:
REMARK  status: ('A' for Active; 'I' for Inactive)
REMARK    1  A    between atoms: O_1  and  C_4
REMARK    2  A    between atoms: C_2  and  C_3
REMARK    3  A    between atoms: C_2  and  C_4
REMARK    4  A    between atoms: C_3  and  C_5
REMARK    5  A    between atoms: C_4  and  C_6
REMARK    6  A    between atoms: C_5  and  C_7
REMARK    7  A    between atoms: C_6  and  C_8
REMARK    8  A    between atoms: C_7  and  C_9
REMARK                            x       y       z     vdW  Elec       q    Type
REMARK                         _______ _______ _______ _____ _____    ______ ____
ROOT
ATOM      1  C   UNL     1       6.990   9.021   0.048  0.00  0.00    +0.000 C 
ATOM      2  H   UNL     1       7.743   8.465   0.623  0.00  0.00    +0.000 HD
ATOM      3  H   UNL     1       6.635   8.320  -0.718  0.00  0.00    +0.000 HD
ENDROOT
BRANCH   1   4
ATOM      4  C   UNL     1       5.819   9.409   0.960  0.00  0.00    +0.000 C 
ATOM      5  H   UNL     1       5.858  10.484   1.173  0.00  0.00    +0.000 HD
ATOM      6  H   UNL     1       5.895   8.881   1.917  0.00  0.00    +0.000 HD
BRANCH   4   7
ATOM      7  C   UNL     1       4.477   9.060   0.309  0.00  0.00    +0.000 C 
ATOM      8  H   UNL     1       3.801   8.650   1.070  0.00  0.00    +0.000 HD
ATOM      9  H   UNL     1       4.633   8.269  -0.435  0.00  0.00    +0.000 HD
BRANCH   7  10
ATOM     10  C   UNL     1       3.802  10.257  -0.365  0.00  0.00    +0.000 C 
ATOM     11  H   UNL     1       4.342  10.507  -1.285  0.00  0.00    +0.000 HD
ATOM     12  H   UNL     1       2.783   9.979  -0.660  0.00  0.00    +0.000 HD
BRANCH  10  13
ATOM     13  C   UNL     1       3.736  11.493   0.518  0.00  0.00    +0.000 C 
ATOM     14  H   UNL     1       2.716  11.642   0.887  0.00  0.00    +0.000 HD
ATOM     15  H   UNL     1       4.032  12.387  -0.039  0.00  0.00    +0.000 HD
ATOM     16  H   UNL     1       4.399  11.391   1.383  0.00  0.00    +0.000 HD
ENDBRANCH  10  13
ENDBRANCH   7  10
ENDBRANCH   4   7
ENDBRANCH   1   4
BRANCH   1  17
ATOM     17  C   UNL     1       7.667  10.208  -0.653  0.00  0.00    +0.000 C 
ATOM     18  H   UNL     1       7.390  11.134  -0.134  0.00  0.00    +0.000 HD
BRANCH  17  19
ATOM     19  C   UNL     1       9.195  10.098  -0.688  0.00  0.00    +0.000 C 
ATOM     20  H   UNL     1       9.580   9.962   0.330  0.00  0.00    +0.000 HD
ATOM     21  H   UNL     1       9.638  11.014  -1.092  0.00  0.00    +0.000 HD
BRANCH  19  22
ATOM     22  C   UNL     1       9.665   8.922  -1.535  0.00  0.00    +0.000 C 
ATOM     23  H   UNL     1       8.854   8.546  -2.168  0.00  0.00    +0.000 HD
ATOM     24  H   UNL     1      10.486   9.233  -2.187  0.00  0.00    +0.000 HD
ATOM     25  H   UNL     1      10.027   8.097  -0.912  0.00  0.00    +0.000 HD
ENDBRANCH  19  22
ENDBRANCH  17  19
BRANCH  17  26
ATOM     26  O   UNL     1       7.179  10.319  -1.988  0.00  0.00    +0.000 OA
ATOM     27  H   UNL     1       6.458   9.675  -2.092  0.00  0.00    +0.000 HD
ENDBRANCH  17  26
ENDBRANCH   1  17
TORSDOF 8
ENDMDL
