MODEL 1
REMARK VINA RESULT:    -4.285      0.000      0.000
REMARK INTER + INTRA:          -6.163
REMARK INTER:                  -5.525
REMARK INTRA:                  -0.638
REMARK UNBOUND:                -0.250
REMARK  Name = 11515
REMARK  8 active torsions:
REMARK  status: ('A' for Active; 'I' for Inactive)
REMARK    1  A    between atoms: O_1  and  C_2
REMARK    2  A    between atoms: C_2  and  C_3
REMARK    3  A    between atoms: C_2  and  C_4
REMARK    4  A    between atoms: C_3  and  C_5
REMARK    5  A    between atoms: C_4  and  C_6
REMARK    6  A    between atoms: C_5  and  C_7
REMARK    7  A    between atoms: C_6  and  C_8
REMARK    8  A    between atoms: C_7  and  C_9
REMARK                            x       y       z     vdW  Elec       q    Type
REMARK                         _______ _______ _______ _____ _____    ______ ____
ROOT
ATOM      1  C   UNL     1       3.833   9.236   1.295  0.00  0.00    +0.000 C 
ATOM      2  H   UNL     1       3.094   8.462   1.056  0.00  0.00    +0.000 HD
ENDROOT
BRANCH   1   3
ATOM      3  C   UNL     1       4.312   9.919   0.009  0.00  0.00    +0.000 C 
ATOM      4  H   UNL     1       5.269   9.483  -0.302  0.00  0.00    +0.000 HD
ATOM      5  H   UNL     1       3.590   9.731  -0.795  0.00  0.00    +0.000 HD
BRANCH   3   6
ATOM      6  C   UNL     1       4.507  11.429   0.192  0.00  0.00    +0.000 C 
ATOM      7  H   UNL     1       3.888  11.969  -0.535  0.00  0.00    +0.000 HD
ATOM      8  H   UNL     1       4.174  11.734   1.191  0.00  0.00    +0.000 HD
BRANCH   6   9
ATOM      9  C   UNL     1       5.973  11.825   0.011  0.00  0.00    +0.000 C 
ATOM     10  H   UNL     1       6.051  12.909  -0.131  0.00  0.00    +0.000 HD
ATOM     11  H   UNL     1       6.541  11.573   0.914  0.00  0.00    +0.000 HD
BRANCH   9  12
ATOM     12  C   UNL     1       6.597  11.121  -1.185  0.00  0.00    +0.000 C 
ATOM     13  H   UNL     1       6.885  10.096  -0.930  0.00  0.00    +0.000 HD
ATOM     14  H   UNL     1       5.883  11.078  -2.014  0.00  0.00    +0.000 HD
ATOM     15  H   UNL     1       7.488  11.653  -1.531  0.00  0.00    +0.000 HD
ENDBRANCH   9  12
ENDBRANCH   6   9
ENDBRANCH   3   6
ENDBRANCH   1   3
BRANCH   1  16
ATOM     16  C   UNL     1       4.977   8.623   2.115  0.00  0.00    +0.000 C 
ATOM     17  H   UNL     1       5.230   9.307   2.935  0.00  0.00    +0.000 HD
ATOM     18  H   UNL     1       4.613   7.697   2.581  0.00  0.00    +0.000 HD
BRANCH  16  19
ATOM     19  C   UNL     1       6.251   8.281   1.341  0.00  0.00    +0.000 C 
ATOM     20  H   UNL     1       6.416   7.197   1.360  0.00  0.00    +0.000 HD
ATOM     21  H   UNL     1       6.120   8.562   0.290  0.00  0.00    +0.000 HD
BRANCH  19  22
ATOM     22  C   UNL     1       7.495   8.963   1.887  0.00  0.00    +0.000 C 
ATOM     23  H   UNL     1       7.264   9.989   2.190  0.00  0.00    +0.000 HD
ATOM     24  H   UNL     1       7.882   8.428   2.760  0.00  0.00    +0.000 HD
ATOM     25  H   UNL     1       8.284   9.001   1.129  0.00  0.00    +0.000 HD
ENDBRANCH  19  22
ENDBRANCH  16  19
ENDBRANCH   1  16
BRANCH   1  26
ATOM     26  O   UNL     1       3.181  10.213   2.111  0.00  0.00    +0.000 OA
ATOM     27  H   UNL     1       2.371  10.493   1.652  0.00  0.00    +0.000 HD
ENDBRANCH   1  26
TORSDOF 8
ENDMDL
MODEL 2
REMARK VINA RESULT:    -4.244     13.416     14.682
REMARK INTER + INTRA:          -6.106
REMARK INTER:                  -5.580
REMARK INTRA:                  -0.526
REMARK UNBOUND:                -0.250
REMARK  Name = 11515
REMARK  8 active torsions:
REMARK  status: ('A' for Active; 'I' for Inactive)
REMARK    1  A    between atoms: O_1  and  C_2
REMARK    2  A    between atoms: C_2  and  C_3
REMARK    3  A    between atoms: C_2  and  C_4
REMARK    4  A    between atoms: C_3  and  C_5
REMARK    5  A    between atoms: C_4  and  C_6
REMARK    6  A    between atoms: C_5  and  C_7
REMARK    7  A    between atoms: C_6  and  C_8
REMARK    8  A    between atoms: C_7  and  C_9
REMARK                            x       y       z     vdW  Elec       q    Type
REMARK                         _______ _______ _______ _____ _____    ______ ____
ROOT
ATOM      1  C   UNL     1      -1.161   8.278 -12.322  0.00  0.00    +0.000 C 
ATOM      2  H   UNL     1      -1.365   8.189 -13.396  0.00  0.00    +0.000 HD
ENDROOT
BRANCH   1   3
ATOM      3  C   UNL     1      -1.789   7.100 -11.568  0.00  0.00    +0.000 C 
ATOM      4  H   UNL     1      -1.265   6.174 -11.836  0.00  0.00    +0.000 HD
ATOM      5  H   UNL     1      -1.660   7.248 -10.489  0.00  0.00    +0.000 HD
BRANCH   3   6
ATOM      6  C   UNL     1      -3.276   6.926 -11.897  0.00  0.00    +0.000 C 
ATOM      7  H   UNL     1      -3.637   7.808 -12.440  0.00  0.00    +0.000 HD
ATOM      8  H   UNL     1      -3.417   6.060 -12.555  0.00  0.00    +0.000 HD
BRANCH   6   9
ATOM      9  C   UNL     1      -4.106   6.730 -10.628  0.00  0.00    +0.000 C 
ATOM     10  H   UNL     1      -4.799   7.569 -10.503  0.00  0.00    +0.000 HD
ATOM     11  H   UNL     1      -4.710   5.819 -10.715  0.00  0.00    +0.000 HD
BRANCH   9  12
ATOM     12  C   UNL     1      -3.222   6.629  -9.394  0.00  0.00    +0.000 C 
ATOM     13  H   UNL     1      -2.380   7.325  -9.457  0.00  0.00    +0.000 HD
ATOM     14  H   UNL     1      -3.798   6.870  -8.495  0.00  0.00    +0.000 HD
ATOM     15  H   UNL     1      -2.823   5.616  -9.280  0.00  0.00    +0.000 HD
ENDBRANCH   9  12
ENDBRANCH   6   9
ENDBRANCH   3   6
ENDBRANCH   1   3
BRANCH   1  16
ATOM     16  C   UNL     1      -1.645   9.645 -11.816  0.00  0.00    +0.000 C 
ATOM     17  H   UNL     1      -1.065  10.432 -12.314  0.00  0.00    +0.000 HD
ATOM     18  H   UNL     1      -2.689   9.781 -12.128  0.00  0.00    +0.000 HD
BRANCH  16  19
ATOM     19  C   UNL     1      -1.582   9.862 -10.304  0.00  0.00    +0.000 C 
ATOM     20  H   UNL     1      -1.113   8.995  -9.824  0.00  0.00    +0.000 HD
ATOM     21  H   UNL     1      -0.942  10.726 -10.090  0.00  0.00    +0.000 HD
BRANCH  19  22
ATOM     22  C   UNL     1      -2.944  10.082  -9.665  0.00  0.00    +0.000 C 
ATOM     23  H   UNL     1      -2.833  10.295  -8.597  0.00  0.00    +0.000 HD
ATOM     24  H   UNL     1      -3.461  10.928 -10.130  0.00  0.00    +0.000 HD
ATOM     25  H   UNL     1      -3.574   9.193  -9.772  0.00  0.00    +0.000 HD
ENDBRANCH  19  22
ENDBRANCH  16  19
ENDBRANCH   1  16
BRANCH   1  26
ATOM     26  O   UNL     1       0.257   8.223 -12.150  0.00  0.00    +0.000 OA
ATOM     27  H   UNL     1       0.622   9.088 -12.403  0.00  0.00    +0.000 HD
ENDBRANCH   1  26
TORSDOF 8
ENDMDL
MODEL 3
REMARK VINA RESULT:    -4.153     28.220     29.125
REMARK INTER + INTRA:          -5.981
REMARK INTER:                  -5.656
REMARK INTRA:                  -0.325
REMARK UNBOUND:                -0.250
REMARK  Name = 11515
REMARK  8 active torsions:
REMARK  status: ('A' for Active; 'I' for Inactive)
REMARK    1  A    between atoms: O_1  and  C_2
REMARK    2  A    between atoms: C_2  and  C_3
REMARK    3  A    between atoms: C_2  and  C_4
REMARK    4  A    between atoms: C_3  and  C_5
REMARK    5  A    between atoms: C_4  and  C_6
REMARK    6  A    between atoms: C_5  and  C_7
REMARK    7  A    between atoms: C_6  and  C_8
REMARK    8  A    between atoms: C_7  and  C_9
REMARK                            x       y       z     vdW  Elec       q    Type
REMARK                         _______ _______ _______ _____ _____    ______ ____
ROOT
ATOM      1  C   UNL     1     -19.386  -5.269   4.454  0.00  0.00    +0.000 C 
ATOM      2  H   UNL     1     -19.957  -6.162   4.173  0.00  0.00    +0.000 HD
ENDROOT
BRANCH   1   3
ATOM      3  C   UNL     1     -20.338  -4.167   4.933  0.00  0.00    +0.000 C 
ATOM      4  H   UNL     1     -21.248  -4.621   5.345  0.00  0.00    +0.000 HD
ATOM      5  H   UNL     1     -19.862  -3.599   5.741  0.00  0.00    +0.000 HD
BRANCH   3   6
ATOM      6  C   UNL     1     -20.745  -3.218   3.799  0.00  0.00    +0.000 C 
ATOM      7  H   UNL     1     -19.848  -2.879   3.265  0.00  0.00    +0.000 HD
ATOM      8  H   UNL     1     -21.373  -3.747   3.073  0.00  0.00    +0.000 HD
BRANCH   6   9
ATOM      9  C   UNL     1     -21.509  -2.008   4.335  0.00  0.00    +0.000 C 
ATOM     10  H   UNL     1     -21.738  -1.318   3.515  0.00  0.00    +0.000 HD
ATOM     11  H   UNL     1     -22.465  -2.331   4.764  0.00  0.00    +0.000 HD
BRANCH   9  12
ATOM     12  C   UNL     1     -20.710  -1.269   5.398  0.00  0.00    +0.000 C 
ATOM     13  H   UNL     1     -19.816  -1.834   5.679  0.00  0.00    +0.000 HD
ATOM     14  H   UNL     1     -20.391  -0.292   5.021  0.00  0.00    +0.000 HD
ATOM     15  H   UNL     1     -21.311  -1.106   6.298  0.00  0.00    +0.000 HD
ENDBRANCH   9  12
ENDBRANCH   6   9
ENDBRANCH   3   6
ENDBRANCH   1   3
BRANCH   1  16
ATOM     16  C   UNL     1     -18.498  -4.832   3.282  0.00  0.00    +0.000 C 
ATOM     17  H   UNL     1     -18.686  -3.773   3.070  0.00  0.00    +0.000 HD
ATOM     18  H   UNL     1     -17.448  -4.907   3.595  0.00  0.00    +0.000 HD
BRANCH  16  19
ATOM     19  C   UNL     1     -18.651  -5.632   1.987  0.00  0.00    +0.000 C 
ATOM     20  H   UNL     1     -18.501  -4.973   1.124  0.00  0.00    +0.000 HD
ATOM     21  H   UNL     1     -17.867  -6.396   1.941  0.00  0.00    +0.000 HD
BRANCH  19  22
ATOM     22  C   UNL     1     -20.008  -6.304   1.845  0.00  0.00    +0.000 C 
ATOM     23  H   UNL     1     -20.424  -6.533   2.831  0.00  0.00    +0.000 HD
ATOM     24  H   UNL     1     -20.713  -5.652   1.320  0.00  0.00    +0.000 HD
ATOM     25  H   UNL     1     -19.923  -7.241   1.285  0.00  0.00    +0.000 HD
ENDBRANCH  19  22
ENDBRANCH  16  19
ENDBRANCH   1  16
BRANCH   1  26
ATOM     26  O   UNL     1     -18.531  -5.633   5.542  0.00  0.00    +0.000 OA
ATOM     27  H   UNL     1     -18.253  -4.815   5.988  0.00  0.00    +0.000 HD
ENDBRANCH   1  26
TORSDOF 8
ENDMDL
MODEL 4
REMARK VINA RESULT:    -4.087     13.128     14.245
REMARK INTER + INTRA:          -5.890
REMARK INTER:                  -5.373
REMARK INTRA:                  -0.517
REMARK UNBOUND:                -0.250
REMARK  Name = 11515
REMARK  8 active torsions:
REMARK  status: ('A' for Active; 'I' for Inactive)
REMARK    1  A    between atoms: O_1  and  C_2
REMARK    2  A    between atoms: C_2  and  C_3
REMARK    3  A    between atoms: C_2  and  C_4
REMARK    4  A    between atoms: C_3  and  C_5
REMARK    5  A    between atoms: C_4  and  C_6
REMARK    6  A    between atoms: C_5  and  C_7
REMARK    7  A    between atoms: C_6  and  C_8
REMARK    8  A    between atoms: C_7  and  C_9
REMARK                            x       y       z     vdW  Elec       q    Type
REMARK                         _______ _______ _______ _____ _____    ______ ____
ROOT
ATOM      1  C   UNL     1      -3.147   7.549  -9.759  0.00  0.00    +0.000 C 
ATOM      2  H   UNL     1      -4.166   7.733 -10.120  0.00  0.00    +0.000 HD
ENDROOT
BRANCH   1   3
ATOM      3  C   UNL     1      -2.545   8.845  -9.203  0.00  0.00    +0.000 C 
ATOM      4  H   UNL     1      -3.128   9.176  -8.334  0.00  0.00    +0.000 HD
ATOM      5  H   UNL     1      -1.523   8.654  -8.857  0.00  0.00    +0.000 HD
BRANCH   3   6
ATOM      6  C   UNL     1      -2.542   9.976 -10.239  0.00  0.00    +0.000 C 
ATOM      7  H   UNL     1      -3.170   9.692 -11.093  0.00  0.00    +0.000 HD
ATOM      8  H   UNL     1      -2.976  10.885  -9.806  0.00  0.00    +0.000 HD
BRANCH   6   9
ATOM      9  C   UNL     1      -1.125  10.280 -10.724  0.00  0.00    +0.000 C 
ATOM     10  H   UNL     1      -0.836  11.293 -10.421  0.00  0.00    +0.000 HD
ATOM     11  H   UNL     1      -0.415   9.587 -10.257  0.00  0.00    +0.000 HD
BRANCH   9  12
ATOM     12  C   UNL     1      -1.015  10.164 -12.237  0.00  0.00    +0.000 C 
ATOM     13  H   UNL     1      -0.649  11.096 -12.676  0.00  0.00    +0.000 HD
ATOM     14  H   UNL     1      -0.318   9.363 -12.506  0.00  0.00    +0.000 HD
ATOM     15  H   UNL     1      -1.987   9.932 -12.683  0.00  0.00    +0.000 HD
ENDBRANCH   9  12
ENDBRANCH   6   9
ENDBRANCH   3   6
ENDBRANCH   1   3
BRANCH   1  16
ATOM     16  C   UNL     1      -2.305   6.926 -10.881  0.00  0.00    +0.000 C 
ATOM     17  H   UNL     1      -1.332   7.432 -10.916  0.00  0.00    +0.000 HD
ATOM     18  H   UNL     1      -2.104   5.878 -10.623  0.00  0.00    +0.000 HD
BRANCH  16  19
ATOM     19  C   UNL     1      -2.926   6.946 -12.278  0.00  0.00    +0.000 C 
ATOM     20  H   UNL     1      -2.258   7.469 -12.973  0.00  0.00    +0.000 HD
ATOM     21  H   UNL     1      -3.021   5.918 -12.644  0.00  0.00    +0.000 HD
BRANCH  19  22
ATOM     22  C   UNL     1      -4.288   7.619 -12.328  0.00  0.00    +0.000 C 
ATOM     23  H   UNL     1      -4.176   8.691 -12.518  0.00  0.00    +0.000 HD
ATOM     24  H   UNL     1      -4.905   7.194 -13.126  0.00  0.00    +0.000 HD
ATOM     25  H   UNL     1      -4.820   7.495 -11.379  0.00  0.00    +0.000 HD
ENDBRANCH  19  22
ENDBRANCH  16  19
ENDBRANCH   1  16
BRANCH   1  26
ATOM     26  O   UNL     1      -3.234   6.598  -8.695  0.00  0.00    +0.000 OA
ATOM     27  H   UNL     1      -3.127   5.711  -9.079  0.00  0.00    +0.000 HD
ENDBRANCH   1  26
TORSDOF 8
ENDMDL
MODEL 5
REMARK VINA RESULT:    -4.048     15.632     16.783
REMARK INTER + INTRA:          -5.836
REMARK INTER:                  -5.477
REMARK INTRA:                  -0.359
REMARK UNBOUND:                -0.250
REMARK  Name = 11515
REMARK  8 active torsions:
REMARK  status: ('A' for Active; 'I' for Inactive)
REMARK    1  A    between atoms: O_1  and  C_2
REMARK    2  A    between atoms: C_2  and  C_3
REMARK    3  A    between atoms: C_2  and  C_4
REMARK    4  A    between atoms: C_3  and  C_5
REMARK    5  A    between atoms: C_4  and  C_6
REMARK    6  A    between atoms: C_5  and  C_7
REMARK    7  A    between atoms: C_6  and  C_8
REMARK    8  A    between atoms: C_7  and  C_9
REMARK                            x       y       z     vdW  Elec       q    Type
REMARK                         _______ _______ _______ _____ _____    ______ ____
ROOT
ATOM      1  C   UNL     1      -8.715   6.153  -5.057  0.00  0.00    +0.000 C 
ATOM      2  H   UNL     1      -9.582   6.444  -4.453  0.00  0.00    +0.000 HD
ENDROOT
BRANCH   1   3
ATOM      3  C   UNL     1      -8.907   6.610  -6.507  0.00  0.00    +0.000 C 
ATOM      4  H   UNL     1      -7.927   6.783  -6.970  0.00  0.00    +0.000 HD
ATOM      5  H   UNL     1      -9.401   5.815  -7.078  0.00  0.00    +0.000 HD
BRANCH   3   6
ATOM      6  C   UNL     1      -9.721   7.906  -6.605  0.00  0.00    +0.000 C 
ATOM      7  H   UNL     1      -9.041   8.756  -6.745  0.00  0.00    +0.000 HD
ATOM      8  H   UNL     1     -10.380   7.871  -7.480  0.00  0.00    +0.000 HD
BRANCH   6   9
ATOM      9  C   UNL     1     -10.565   8.126  -5.351  0.00  0.00    +0.000 C 
ATOM     10  H   UNL     1     -10.117   7.598  -4.502  0.00  0.00    +0.000 HD
ATOM     11  H   UNL     1     -10.584   9.193  -5.096  0.00  0.00    +0.000 HD
BRANCH   9  12
ATOM     12  C   UNL     1     -11.992   7.634  -5.545  0.00  0.00    +0.000 C 
ATOM     13  H   UNL     1     -12.100   6.602  -5.198  0.00  0.00    +0.000 HD
ATOM     14  H   UNL     1     -12.689   8.260  -4.978  0.00  0.00    +0.000 HD
ATOM     15  H   UNL     1     -12.280   7.675  -6.600  0.00  0.00    +0.000 HD
ENDBRANCH   9  12
ENDBRANCH   6   9
ENDBRANCH   3   6
ENDBRANCH   1   3
BRANCH   1  16
ATOM     16  C   UNL     1      -8.477   4.642  -4.927  0.00  0.00    +0.000 C 
ATOM     17  H   UNL     1      -7.410   4.437  -5.078  0.00  0.00    +0.000 HD
ATOM     18  H   UNL     1      -8.710   4.341  -3.896  0.00  0.00    +0.000 HD
BRANCH  16  19
ATOM     19  C   UNL     1      -9.292   3.750  -5.864  0.00  0.00    +0.000 C 
ATOM     20  H   UNL     1      -9.326   4.197  -6.865  0.00  0.00    +0.000 HD
ATOM     21  H   UNL     1      -8.789   2.782  -5.967  0.00  0.00    +0.000 HD
BRANCH  19  22
ATOM     22  C   UNL     1     -10.720   3.520  -5.395  0.00  0.00    +0.000 C 
ATOM     23  H   UNL     1     -11.333   4.405  -5.595  0.00  0.00    +0.000 HD
ATOM     24  H   UNL     1     -11.169   2.669  -5.915  0.00  0.00    +0.000 HD
ATOM     25  H   UNL     1     -10.750   3.321  -4.319  0.00  0.00    +0.000 HD
ENDBRANCH  19  22
ENDBRANCH  16  19
ENDBRANCH   1  16
BRANCH   1  26
ATOM     26  O   UNL     1      -7.573   6.825  -4.517  0.00  0.00    +0.000 OA
ATOM     27  H   UNL     1      -7.638   7.764  -4.761  0.00  0.00    +0.000 HD
ENDBRANCH   1  26
TORSDOF 8
ENDMDL
MODEL 6
REMARK VINA RESULT:    -4.022     13.175     14.342
REMARK INTER + INTRA:          -5.799
REMARK INTER:                  -5.397
REMARK INTRA:                  -0.403
REMARK UNBOUND:                -0.250
REMARK  Name = 11515
REMARK  8 active torsions:
REMARK  status: ('A' for Active; 'I' for Inactive)
REMARK    1  A    between atoms: O_1  and  C_2
REMARK    2  A    between atoms: C_2  and  C_3
REMARK    3  A    between atoms: C_2  and  C_4
REMARK    4  A    between atoms: C_3  and  C_5
REMARK    5  A    between atoms: C_4  and  C_6
REMARK    6  A    between atoms: C_5  and  C_7
REMARK    7  A    between atoms: C_6  and  C_8
REMARK    8  A    between atoms: C_7  and  C_9
REMARK                            x       y       z     vdW  Elec       q    Type
REMARK                         _______ _______ _______ _____ _____    ______ ____
ROOT
ATOM      1  C   UNL     1      -3.060   7.275  -9.267  0.00  0.00    +0.000 C 
ATOM      2  H   UNL     1      -2.221   6.673  -8.898  0.00  0.00    +0.000 HD
ENDROOT
BRANCH   1   3
ATOM      3  C   UNL     1      -3.201   7.105 -10.784  0.00  0.00    +0.000 C 
ATOM      4  H   UNL     1      -3.961   6.344 -10.999  0.00  0.00    +0.000 HD
ATOM      5  H   UNL     1      -3.548   8.047 -11.226  0.00  0.00    +0.000 HD
BRANCH   3   6
ATOM      6  C   UNL     1      -1.886   6.673 -11.445  0.00  0.00    +0.000 C 
ATOM      7  H   UNL     1      -1.049   7.206 -10.978  0.00  0.00    +0.000 HD
ATOM      8  H   UNL     1      -1.718   5.602 -11.283  0.00  0.00    +0.000 HD
BRANCH   6   9
ATOM      9  C   UNL     1      -1.901   6.957 -12.946  0.00  0.00    +0.000 C 
ATOM     10  H   UNL     1      -0.953   7.418 -13.248  0.00  0.00    +0.000 HD
ATOM     11  H   UNL     1      -1.996   6.017 -13.502  0.00  0.00    +0.000 HD
BRANCH   9  12
ATOM     12  C   UNL     1      -3.046   7.882 -13.328  0.00  0.00    +0.000 C 
ATOM     13  H   UNL     1      -3.862   7.324 -13.797  0.00  0.00    +0.000 HD
ATOM     14  H   UNL     1      -3.443   8.381 -12.438  0.00  0.00    +0.000 HD
ATOM     15  H   UNL     1      -2.711   8.654 -14.028  0.00  0.00    +0.000 HD
ENDBRANCH   9  12
ENDBRANCH   6   9
ENDBRANCH   3   6
ENDBRANCH   1   3
BRANCH   1  16
ATOM     16  C   UNL     1      -2.878   8.737  -8.837  0.00  0.00    +0.000 C 
ATOM     17  H   UNL     1      -3.713   9.021  -8.185  0.00  0.00    +0.000 HD
ATOM     18  H   UNL     1      -1.966   8.809  -8.228  0.00  0.00    +0.000 HD
BRANCH  16  19
ATOM     19  C   UNL     1      -2.759   9.760  -9.967  0.00  0.00    +0.000 C 
ATOM     20  H   UNL     1      -3.266   9.383 -10.864  0.00  0.00    +0.000 HD
ATOM     21  H   UNL     1      -3.277  10.680  -9.676  0.00  0.00    +0.000 HD
BRANCH  19  22
ATOM     22  C   UNL     1      -1.322  10.094 -10.336  0.00  0.00    +0.000 C 
ATOM     23  H   UNL     1      -1.151  11.172 -10.260  0.00  0.00    +0.000 HD
ATOM     24  H   UNL     1      -0.620   9.588  -9.666  0.00  0.00    +0.000 HD
ATOM     25  H   UNL     1      -1.101   9.785 -11.363  0.00  0.00    +0.000 HD
ENDBRANCH  19  22
ENDBRANCH  16  19
ENDBRANCH   1  16
BRANCH   1  26
ATOM     26  O   UNL     1      -4.249   6.779  -8.644  0.00  0.00    +0.000 OA
ATOM     27  H   UNL     1      -4.954   7.432  -8.786  0.00  0.00    +0.000 HD
ENDBRANCH   1  26
TORSDOF 8
ENDMDL
MODEL 7
REMARK VINA RESULT:    -4.014     20.897     22.446
REMARK INTER + INTRA:          -5.788
REMARK INTER:                  -5.539
REMARK INTRA:                  -0.250
REMARK UNBOUND:                -0.250
REMARK  Name = 11515
REMARK  8 active torsions:
REMARK  status: ('A' for Active; 'I' for Inactive)
REMARK    1  A    between atoms: O_1  and  C_2
REMARK    2  A    between atoms: C_2  and  C_3
REMARK    3  A    between atoms: C_2  and  C_4
REMARK    4  A    between atoms: C_3  and  C_5
REMARK    5  A    between atoms: C_4  and  C_6
REMARK    6  A    between atoms: C_5  and  C_7
REMARK    7  A    between atoms: C_6  and  C_8
REMARK    8  A    between atoms: C_7  and  C_9
REMARK                            x       y       z     vdW  Elec       q    Type
REMARK                         _______ _______ _______ _____ _____    ______ ____
ROOT
ATOM      1  C   UNL     1      -8.543   9.404  17.061  0.00  0.00    +0.000 C 
ATOM      2  H   UNL     1      -8.738   9.236  15.996  0.00  0.00    +0.000 HD
ENDROOT
BRANCH   1   3
ATOM      3  C   UNL     1      -9.848   9.300  17.858  0.00  0.00    +0.000 C 
ATOM      4  H   UNL     1      -9.913  10.136  18.565  0.00  0.00    +0.000 HD
ATOM      5  H   UNL     1     -10.701   9.384  17.174  0.00  0.00    +0.000 HD
BRANCH   3   6
ATOM      6  C   UNL     1      -9.942   7.990  18.650  0.00  0.00    +0.000 C 
ATOM      7  H   UNL     1     -10.823   7.425  18.321  0.00  0.00    +0.000 HD
ATOM      8  H   UNL     1      -9.064   7.365  18.450  0.00  0.00    +0.000 HD
BRANCH   6   9
ATOM      9  C   UNL     1     -10.036   8.256  20.152  0.00  0.00    +0.000 C 
ATOM     10  H   UNL     1     -10.461   7.383  20.660  0.00  0.00    +0.000 HD
ATOM     11  H   UNL     1      -9.034   8.416  20.566  0.00  0.00    +0.000 HD
BRANCH   9  12
ATOM     12  C   UNL     1     -10.900   9.472  20.450  0.00  0.00    +0.000 C 
ATOM     13  H   UNL     1     -10.288  10.375  20.543  0.00  0.00    +0.000 HD
ATOM     14  H   UNL     1     -11.622   9.632  19.643  0.00  0.00    +0.000 HD
ATOM     15  H   UNL     1     -11.458   9.338  21.382  0.00  0.00    +0.000 HD
ENDBRANCH   9  12
ENDBRANCH   6   9
ENDBRANCH   3   6
ENDBRANCH   1   3
BRANCH   1  16
ATOM     16  C   UNL     1      -7.826  10.748  17.250  0.00  0.00    +0.000 C 
ATOM     17  H   UNL     1      -8.435  11.385  17.904  0.00  0.00    +0.000 HD
ATOM     18  H   UNL     1      -6.882  10.567  17.781  0.00  0.00    +0.000 HD
BRANCH  16  19
ATOM     19  C   UNL     1      -7.496  11.520  15.972  0.00  0.00    +0.000 C 
ATOM     20  H   UNL     1      -7.403  12.589  16.198  0.00  0.00    +0.000 HD
ATOM     21  H   UNL     1      -6.522  11.191  15.594  0.00  0.00    +0.000 HD
BRANCH  19  22
ATOM     22  C   UNL     1      -8.536  11.352  14.875  0.00  0.00    +0.000 C 
ATOM     23  H   UNL     1      -8.072  11.465  13.891  0.00  0.00    +0.000 HD
ATOM     24  H   UNL     1      -8.998  10.362  14.924  0.00  0.00    +0.000 HD
ATOM     25  H   UNL     1      -9.326  12.105  14.968  0.00  0.00    +0.000 HD
ENDBRANCH  19  22
ENDBRANCH  16  19
ENDBRANCH   1  16
BRANCH   1  26
ATOM     26  O   UNL     1      -7.659   8.370  17.503  0.00  0.00    +0.000 OA
ATOM     27  H   UNL     1      -8.178   7.741  18.032  0.00  0.00    +0.000 HD
ENDBRANCH   1  26
TORSDOF 8
ENDMDL
MODEL 8
REMARK VINA RESULT:    -3.945     12.830     14.173
REMARK INTER + INTRA:          -5.693
REMARK INTER:                  -5.394
REMARK INTRA:                  -0.299
REMARK UNBOUND:                -0.250
REMARK  Name = 11515
REMARK  8 active torsions:
REMARK  status: ('A' for Active; 'I' for Inactive)
REMARK    1  A    between atoms: O_1  and  C_2
REMARK    2  A    between atoms: C_2  and  C_3
REMARK    3  A    between atoms: C_2  and  C_4
REMARK    4  A    between atoms: C_3  and  C_5
REMARK    5  A    between atoms: C_4  and  C_6
REMARK    6  A    between atoms: C_5  and  C_7
REMARK    7  A    between atoms: C_6  and  C_8
REMARK    8  A    between atoms: C_7  and  C_9
REMARK                            x       y       z     vdW  Elec       q    Type
REMARK                         _______ _______ _______ _____ _____    ______ ____
ROOT
ATOM      1  C   UNL     1      -2.393   8.686  -9.197  0.00  0.00    +0.000 C 
ATOM      2  H   UNL     1      -1.386   8.613  -8.770  0.00  0.00    +0.000 HD
ENDROOT
BRANCH   1   3
ATOM      3  C   UNL     1      -2.825   7.326  -9.758  0.00  0.00    +0.000 C 
ATOM      4  H   UNL     1      -3.162   7.448 -10.795  0.00  0.00    +0.000 HD
ATOM      5  H   UNL     1      -1.965   6.647  -9.773  0.00  0.00    +0.000 HD
BRANCH   3   6
ATOM      6  C   UNL     1      -3.970   6.702  -8.951  0.00  0.00    +0.000 C 
ATOM      7  H   UNL     1      -3.612   5.792  -8.452  0.00  0.00    +0.000 HD
ATOM      8  H   UNL     1      -4.298   7.393  -8.166  0.00  0.00    +0.000 HD
BRANCH   6   9
ATOM      9  C   UNL     1      -5.160   6.360  -9.847  0.00  0.00    +0.000 C 
ATOM     10  H   UNL     1      -5.358   5.283  -9.809  0.00  0.00    +0.000 HD
ATOM     11  H   UNL     1      -6.059   6.869  -9.483  0.00  0.00    +0.000 HD
BRANCH   9  12
ATOM     12  C   UNL     1      -4.905   6.767 -11.291  0.00  0.00    +0.000 C 
ATOM     13  H   UNL     1      -5.448   7.684 -11.541  0.00  0.00    +0.000 HD
ATOM     14  H   UNL     1      -3.837   6.949 -11.450  0.00  0.00    +0.000 HD
ATOM     15  H   UNL     1      -5.222   5.980 -11.982  0.00  0.00    +0.000 HD
ENDBRANCH   9  12
ENDBRANCH   6   9
ENDBRANCH   3   6
ENDBRANCH   1   3
BRANCH   1  16
ATOM     16  C   UNL     1      -2.431   9.809 -10.242  0.00  0.00    +0.000 C 
ATOM     17  H   UNL     1      -3.115   9.519 -11.049  0.00  0.00    +0.000 HD
ATOM     18  H   UNL     1      -2.862  10.705  -9.774  0.00  0.00    +0.000 HD
BRANCH  16  19
ATOM     19  C   UNL     1      -1.086  10.209 -10.850  0.00  0.00    +0.000 C 
ATOM     20  H   UNL     1      -1.129  11.249 -11.194  0.00  0.00    +0.000 HD
ATOM     21  H   UNL     1      -0.313  10.164 -10.074  0.00  0.00    +0.000 HD
BRANCH  19  22
ATOM     22  C   UNL     1      -0.665   9.335 -12.021  0.00  0.00    +0.000 C 
ATOM     23  H   UNL     1       0.404   9.110 -11.963  0.00  0.00    +0.000 HD
ATOM     24  H   UNL     1      -1.214   8.389 -12.018  0.00  0.00    +0.000 HD
ATOM     25  H   UNL     1      -0.856   9.841 -12.973  0.00  0.00    +0.000 HD
ENDBRANCH  19  22
ENDBRANCH  16  19
ENDBRANCH   1  16
BRANCH   1  26
ATOM     26  O   UNL     1      -3.284   9.042  -8.136  0.00  0.00    +0.000 OA
ATOM     27  H   UNL     1      -3.923   8.317  -8.028  0.00  0.00    +0.000 HD
ENDBRANCH   1  26
TORSDOF 8
ENDMDL
MODEL 9
REMARK VINA RESULT:    -3.929     13.097     14.224
REMARK INTER + INTRA:          -5.672
REMARK INTER:                  -5.227
REMARK INTRA:                  -0.445
REMARK UNBOUND:                -0.250
REMARK  Name = 11515
REMARK  8 active torsions:
REMARK  status: ('A' for Active; 'I' for Inactive)
REMARK    1  A    between atoms: O_1  and  C_2
REMARK    2  A    between atoms: C_2  and  C_3
REMARK    3  A    between atoms: C_2  and  C_4
REMARK    4  A    between atoms: C_3  and  C_5
REMARK    5  A    between atoms: C_4  and  C_6
REMARK    6  A    between atoms: C_5  and  C_7
REMARK    7  A    between atoms: C_6  and  C_8
REMARK    8  A    between atoms: C_7  and  C_9
REMARK                            x       y       z     vdW  Elec       q    Type
REMARK                         _______ _______ _______ _____ _____    ______ ____
ROOT
ATOM      1  C   UNL     1      -2.568   9.787  -9.783  0.00  0.00    +0.000 C 
ATOM      2  H   UNL     1      -2.910  10.733  -9.346  0.00  0.00    +0.000 HD
ENDROOT
BRANCH   1   3
ATOM      3  C   UNL     1      -3.205   9.584 -11.162  0.00  0.00    +0.000 C 
ATOM      4  H   UNL     1      -3.802   8.664 -11.158  0.00  0.00    +0.000 HD
ATOM      5  H   UNL     1      -3.888  10.415 -11.374  0.00  0.00    +0.000 HD
BRANCH   3   6
ATOM      6  C   UNL     1      -2.157   9.474 -12.276  0.00  0.00    +0.000 C 
ATOM      7  H   UNL     1      -2.253  10.330 -12.956  0.00  0.00    +0.000 HD
ATOM      8  H   UNL     1      -1.148   9.512 -11.848  0.00  0.00    +0.000 HD
BRANCH   6   9
ATOM      9  C   UNL     1      -2.318   8.174 -13.063  0.00  0.00    +0.000 C 
ATOM     10  H   UNL     1      -3.358   7.833 -13.010  0.00  0.00    +0.000 HD
ATOM     11  H   UNL     1      -2.086   8.347 -14.120  0.00  0.00    +0.000 HD
BRANCH   9  12
ATOM     12  C   UNL     1      -1.409   7.079 -12.525  0.00  0.00    +0.000 C 
ATOM     13  H   UNL     1      -1.979   6.342 -11.953  0.00  0.00    +0.000 HD
ATOM     14  H   UNL     1      -0.911   6.560 -13.350  0.00  0.00    +0.000 HD
ATOM     15  H   UNL     1      -0.636   7.498 -11.872  0.00  0.00    +0.000 HD
ENDBRANCH   9  12
ENDBRANCH   6   9
ENDBRANCH   3   6
ENDBRANCH   1   3
BRANCH   1  16
ATOM     16  C   UNL     1      -2.855   8.634  -8.810  0.00  0.00    +0.000 C 
ATOM     17  H   UNL     1      -2.018   8.549  -8.106  0.00  0.00    +0.000 HD
ATOM     18  H   UNL     1      -3.740   8.895  -8.214  0.00  0.00    +0.000 HD
BRANCH  16  19
ATOM     19  C   UNL     1      -3.113   7.267  -9.446  0.00  0.00    +0.000 C 
ATOM     20  H   UNL     1      -3.300   7.387 -10.520  0.00  0.00    +0.000 HD
ATOM     21  H   UNL     1      -2.212   6.650  -9.349  0.00  0.00    +0.000 HD
BRANCH  19  22
ATOM     22  C   UNL     1      -4.291   6.526  -8.835  0.00  0.00    +0.000 C 
ATOM     23  H   UNL     1      -5.084   7.230  -8.565  0.00  0.00    +0.000 HD
ATOM     24  H   UNL     1      -4.705   5.802  -9.543  0.00  0.00    +0.000 HD
ATOM     25  H   UNL     1      -3.989   5.990  -7.930  0.00  0.00    +0.000 HD
ENDBRANCH  19  22
ENDBRANCH  16  19
ENDBRANCH   1  16
BRANCH   1  26
ATOM     26  O   UNL     1      -1.150   9.880  -9.948  0.00  0.00    +0.000 OA
ATOM     27  H   UNL     1      -0.973  10.551 -10.629  0.00  0.00    +0.000 HD
ENDBRANCH   1  26
TORSDOF 8
ENDMDL
MODEL 10
REMARK VINA RESULT:    -3.814     15.695     16.533
REMARK INTER + INTRA:          -5.513
REMARK INTER:                  -5.150
REMARK INTRA:                  -0.363
REMARK UNBOUND:                -0.250
REMARK  Name = 11515
REMARK  8 active torsions:
REMARK  status: ('A' for Active; 'I' for Inactive)
REMARK    1  A    between atoms: O_1  and  C_2
REMARK    2  A    between atoms: C_2  and  C_3
REMARK    3  A    between atoms: C_2  and  C_4
REMARK    4  A    between atoms: C_3  and  C_5
REMARK    5  A    between atoms: C_4  and  C_6
REMARK    6  A    between atoms: C_5  and  C_7
REMARK    7  A    between atoms: C_6  and  C_8
REMARK    8  A    between atoms: C_7  and  C_9
REMARK                            x       y       z     vdW  Elec       q    Type
REMARK                         _______ _______ _______ _____ _____    ______ ____
ROOT
ATOM      1  C   UNL     1      -8.632   6.161  -5.420  0.00  0.00    +0.000 C 
ATOM      2  H   UNL     1      -8.237   6.221  -6.441  0.00  0.00    +0.000 HD
ENDROOT
BRANCH   1   3
ATOM      3  C   UNL     1      -8.818   4.695  -5.014  0.00  0.00    +0.000 C 
ATOM      4  H   UNL     1      -8.215   4.482  -4.122  0.00  0.00    +0.000 HD
ATOM      5  H   UNL     1      -9.867   4.520  -4.748  0.00  0.00    +0.000 HD
BRANCH   3   6
ATOM      6  C   UNL     1      -8.392   3.726  -6.124  0.00  0.00    +0.000 C 
ATOM      7  H   UNL     1      -7.411   3.299  -5.882  0.00  0.00    +0.000 HD
ATOM      8  H   UNL     1      -9.101   2.892  -6.189  0.00  0.00    +0.000 HD
BRANCH   6   9
ATOM      9  C   UNL     1      -8.325   4.431  -7.479  0.00  0.00    +0.000 C 
ATOM     10  H   UNL     1      -9.114   4.051  -8.137  0.00  0.00    +0.000 HD
ATOM     11  H   UNL     1      -8.499   5.505  -7.349  0.00  0.00    +0.000 HD
BRANCH   9  12
ATOM     12  C   UNL     1      -6.975   4.221  -8.150  0.00  0.00    +0.000 C 
ATOM     13  H   UNL     1      -6.241   3.829  -7.440  0.00  0.00    +0.000 HD
ATOM     14  H   UNL     1      -7.069   3.506  -8.973  0.00  0.00    +0.000 HD
ATOM     15  H   UNL     1      -6.591   5.160  -8.559  0.00  0.00    +0.000 HD
ENDBRANCH   9  12
ENDBRANCH   6   9
ENDBRANCH   3   6
ENDBRANCH   1   3
BRANCH   1  16
ATOM     16  C   UNL     1      -9.923   6.985  -5.315  0.00  0.00    +0.000 C 
ATOM     17  H   UNL     1     -10.765   6.365  -5.646  0.00  0.00    +0.000 HD
ATOM     18  H   UNL     1     -10.102   7.217  -4.256  0.00  0.00    +0.000 HD
BRANCH  16  19
ATOM     19  C   UNL     1      -9.943   8.305  -6.086  0.00  0.00    +0.000 C 
ATOM     20  H   UNL     1     -10.850   8.867  -5.835  0.00  0.00    +0.000 HD
ATOM     21  H   UNL     1      -9.093   8.920  -5.769  0.00  0.00    +0.000 HD
BRANCH  19  22
ATOM     22  C   UNL     1      -9.893   8.128  -7.595  0.00  0.00    +0.000 C 
ATOM     23  H   UNL     1     -10.124   9.073  -8.097  0.00  0.00    +0.000 HD
ATOM     24  H   UNL     1      -8.899   7.804  -7.918  0.00  0.00    +0.000 HD
ATOM     25  H   UNL     1     -10.622   7.381  -7.925  0.00  0.00    +0.000 HD
ENDBRANCH  19  22
ENDBRANCH  16  19
ENDBRANCH   1  16
BRANCH   1  26
ATOM     26  O   UNL     1      -7.662   6.752  -4.550  0.00  0.00    +0.000 OA
ATOM     27  H   UNL     1      -8.123   7.391  -3.980  0.00  0.00    +0.000 HD
ENDBRANCH   1  26
TORSDOF 8
ENDMDL
