MODEL 1
REMARK VINA RESULT:    -4.513      0.000      0.000
REMARK INTER + INTRA:          -5.967
REMARK INTER:                  -5.774
REMARK INTRA:                  -0.193
REMARK UNBOUND:                -0.268
REMARK  Name = 9862
REMARK  6 active torsions:
REMARK  status: ('A' for Active; 'I' for Inactive)
REMARK    1  A    between atoms: C_2  and  C_3
REMARK    2  A    between atoms: C_2  and  C_4
REMARK    3  A    between atoms: C_3  and  C_6
REMARK    4  A    between atoms: C_5  and  C_7
REMARK    5  A    between atoms: C_5  and  C_8
REMARK    6  A    between atoms: C_6  and  C_9
REMARK                            x       y       z     vdW  Elec       q    Type
REMARK                         _______ _______ _______ _____ _____    ______ ____
ROOT
ATOM      1  C   UNL     1       6.092  11.669  -0.068  0.00  0.00    +0.000 C 
ATOM      2  H   UNL     1       5.718  12.557  -0.592  0.00  0.00    +0.000 HD
ATOM      3  H   UNL     1       6.567  12.049   0.845  0.00  0.00    +0.000 HD
ENDROOT
BRANCH   1   4
ATOM      4  C   UNL     1       4.938  10.737   0.291  0.00  0.00    +0.000 C 
ATOM      5  H   UNL     1       4.918  10.559   1.373  0.00  0.00    +0.000 HD
ATOM      6  H   UNL     1       5.060   9.772  -0.215  0.00  0.00    +0.000 HD
BRANCH   4   8
ATOM      7  O   UNL     1       2.810  11.812   0.694  0.00  0.00    +0.000 OA
ATOM      8  C   UNL     1       3.587  11.301  -0.111  0.00  0.00    +0.000 C 
BRANCH   8   9
ATOM      9  C   UNL     1       3.235  11.203  -1.573  0.00  0.00    +0.000 C 
ATOM     10  H   UNL     1       2.355  10.568  -1.696  0.00  0.00    +0.000 HD
ATOM     11  H   UNL     1       3.011  12.199  -1.966  0.00  0.00    +0.000 HD
ATOM     12  H   UNL     1       4.081  10.787  -2.126  0.00  0.00    +0.000 HD
ENDBRANCH   8   9
ENDBRANCH   4   8
ENDBRANCH   1   4
BRANCH   1  13
ATOM     13  C   UNL     1       7.133  10.958  -0.885  0.00  0.00    +0.000 C 
ATOM     14  C   UNL     1       8.138  10.179  -0.441  0.00  0.00    +0.000 C 
ATOM     15  H   UNL     1       7.030  11.101  -1.959  0.00  0.00    +0.000 HD
BRANCH  14  16
ATOM     16  C   UNL     1       9.072   9.513  -1.415  0.00  0.00    +0.000 C 
ATOM     17  H   UNL     1      10.008  10.075  -1.488  0.00  0.00    +0.000 HD
ATOM     18  H   UNL     1       8.615   9.467  -2.408  0.00  0.00    +0.000 HD
ATOM     19  H   UNL     1       9.324   8.489  -1.118  0.00  0.00    +0.000 HD
ENDBRANCH  14  16
BRANCH  14  20
ATOM     20  C   UNL     1       8.441   9.901   1.004  0.00  0.00    +0.000 C 
ATOM     21  H   UNL     1       7.621  10.167   1.674  0.00  0.00    +0.000 HD
ATOM     22  H   UNL     1       9.316  10.479   1.322  0.00  0.00    +0.000 HD
ATOM     23  H   UNL     1       8.659   8.837   1.145  0.00  0.00    +0.000 HD
ENDBRANCH  14  20
ENDBRANCH   1  13
TORSDOF 6
ENDMDL
MODEL 2
REMARK VINA RESULT:    -4.471      3.021      4.136
REMARK INTER + INTRA:          -5.914
REMARK INTER:                  -5.726
REMARK INTRA:                  -0.189
REMARK UNBOUND:                -0.268
REMARK  Name = 9862
REMARK  6 active torsions:
REMARK  status: ('A' for Active; 'I' for Inactive)
REMARK    1  A    between atoms: C_2  and  C_3
REMARK    2  A    between atoms: C_2  and  C_4
REMARK    3  A    between atoms: C_3  and  C_6
REMARK    4  A    between atoms: C_5  and  C_7
REMARK    5  A    between atoms: C_5  and  C_8
REMARK    6  A    between atoms: C_6  and  C_9
REMARK                            x       y       z     vdW  Elec       q    Type
REMARK                         _______ _______ _______ _____ _____    ______ ____
ROOT
ATOM      1  C   UNL     1       3.669   8.888   1.483  0.00  0.00    +0.000 C 
ATOM      2  H   UNL     1       2.598   9.024   1.293  0.00  0.00    +0.000 HD
ATOM      3  H   UNL     1       3.897   7.869   1.147  0.00  0.00    +0.000 HD
ENDROOT
BRANCH   1   4
ATOM      4  C   UNL     1       4.486   9.898   0.681  0.00  0.00    +0.000 C 
ATOM      5  H   UNL     1       4.910   9.420  -0.210  0.00  0.00    +0.000 HD
ATOM      6  H   UNL     1       5.310  10.286   1.290  0.00  0.00    +0.000 HD
BRANCH   4   8
ATOM      7  O   UNL     1       3.165  11.898   1.000  0.00  0.00    +0.000 OA
ATOM      8  C   UNL     1       3.656  11.084   0.220  0.00  0.00    +0.000 C 
BRANCH   8   9
ATOM      9  C   UNL     1       3.460  11.218  -1.268  0.00  0.00    +0.000 C 
ATOM     10  H   UNL     1       3.577  10.241  -1.743  0.00  0.00    +0.000 HD
ATOM     11  H   UNL     1       2.454  11.593  -1.475  0.00  0.00    +0.000 HD
ATOM     12  H   UNL     1       4.190  11.923  -1.671  0.00  0.00    +0.000 HD
ENDBRANCH   8   9
ENDBRANCH   4   8
ENDBRANCH   1   4
BRANCH   1  13
ATOM     13  C   UNL     1       3.974   8.985   2.951  0.00  0.00    +0.000 C 
ATOM     14  C   UNL     1       4.914   8.313   3.643  0.00  0.00    +0.000 C 
ATOM     15  H   UNL     1       3.351   9.696   3.489  0.00  0.00    +0.000 HD
BRANCH  14  16
ATOM     16  C   UNL     1       5.103   8.564   5.114  0.00  0.00    +0.000 C 
ATOM     17  H   UNL     1       5.618   9.517   5.274  0.00  0.00    +0.000 HD
ATOM     18  H   UNL     1       5.705   7.765   5.560  0.00  0.00    +0.000 HD
ATOM     19  H   UNL     1       4.153   8.606   5.657  0.00  0.00    +0.000 HD
ENDBRANCH  14  16
BRANCH  14  20
ATOM     20  C   UNL     1       5.836   7.276   3.065  0.00  0.00    +0.000 C 
ATOM     21  H   UNL     1       5.552   6.962   2.058  0.00  0.00    +0.000 HD
ATOM     22  H   UNL     1       5.834   6.379   3.693  0.00  0.00    +0.000 HD
ATOM     23  H   UNL     1       6.859   7.665   3.020  0.00  0.00    +0.000 HD
ENDBRANCH  14  20
ENDBRANCH   1  13
TORSDOF 6
ENDMDL
MODEL 3
REMARK VINA RESULT:    -4.418     12.945     13.996
REMARK INTER + INTRA:          -5.848
REMARK INTER:                  -5.477
REMARK INTRA:                  -0.371
REMARK UNBOUND:                -0.268
REMARK  Name = 9862
REMARK  6 active torsions:
REMARK  status: ('A' for Active; 'I' for Inactive)
REMARK    1  A    between atoms: C_2  and  C_3
REMARK    2  A    between atoms: C_2  and  C_4
REMARK    3  A    between atoms: C_3  and  C_6
REMARK    4  A    between atoms: C_5  and  C_7
REMARK    5  A    between atoms: C_5  and  C_8
REMARK    6  A    between atoms: C_6  and  C_9
REMARK                            x       y       z     vdW  Elec       q    Type
REMARK                         _______ _______ _______ _____ _____    ______ ____
ROOT
ATOM      1  C   UNL     1      -2.608   9.931 -10.261  0.00  0.00    +0.000 C 
ATOM      2  H   UNL     1      -3.011  10.845  -9.811  0.00  0.00    +0.000 HD
ATOM      3  H   UNL     1      -3.151   9.809 -11.208  0.00  0.00    +0.000 HD
ENDROOT
BRANCH   1   4
ATOM      4  C   UNL     1      -1.113  10.082 -10.531  0.00  0.00    +0.000 C 
ATOM      5  H   UNL     1      -0.544   9.377  -9.913  0.00  0.00    +0.000 HD
ATOM      6  H   UNL     1      -0.787  11.099 -10.284  0.00  0.00    +0.000 HD
BRANCH   4   8
ATOM      7  O   UNL     1      -0.740  10.709 -12.836  0.00  0.00    +0.000 OA
ATOM      8  C   UNL     1      -0.754   9.822 -11.983  0.00  0.00    +0.000 C 
BRANCH   8   9
ATOM      9  C   UNL     1      -0.407   8.399 -12.337  0.00  0.00    +0.000 C 
ATOM     10  H   UNL     1       0.678   8.269 -12.306  0.00  0.00    +0.000 HD
ATOM     11  H   UNL     1      -0.866   7.717 -11.615  0.00  0.00    +0.000 HD
ATOM     12  H   UNL     1      -0.787   8.167 -13.334  0.00  0.00    +0.000 HD
ENDBRANCH   8   9
ENDBRANCH   4   8
ENDBRANCH   1   4
BRANCH   1  13
ATOM     13  C   UNL     1      -2.887   8.735  -9.396  0.00  0.00    +0.000 C 
ATOM     14  C   UNL     1      -3.344   7.528  -9.782  0.00  0.00    +0.000 C 
ATOM     15  H   UNL     1      -2.676   8.890  -8.340  0.00  0.00    +0.000 HD
BRANCH  14  16
ATOM     16  C   UNL     1      -3.533   6.426  -8.774  0.00  0.00    +0.000 C 
ATOM     17  H   UNL     1      -4.298   5.724  -9.118  0.00  0.00    +0.000 HD
ATOM     18  H   UNL     1      -3.851   6.844  -7.812  0.00  0.00    +0.000 HD
ATOM     19  H   UNL     1      -2.614   5.856  -8.600  0.00  0.00    +0.000 HD
ENDBRANCH  14  16
BRANCH  14  20
ATOM     20  C   UNL     1      -3.713   7.153 -11.189  0.00  0.00    +0.000 C 
ATOM     21  H   UNL     1      -3.895   6.083 -11.316  0.00  0.00    +0.000 HD
ATOM     22  H   UNL     1      -2.903   7.424 -11.875  0.00  0.00    +0.000 HD
ATOM     23  H   UNL     1      -4.619   7.687 -11.496  0.00  0.00    +0.000 HD
ENDBRANCH  14  20
ENDBRANCH   1  13
TORSDOF 6
ENDMDL
MODEL 4
REMARK VINA RESULT:    -4.299     13.118     14.727
REMARK INTER + INTRA:          -5.698
REMARK INTER:                  -5.398
REMARK INTRA:                  -0.300
REMARK UNBOUND:                -0.268
REMARK  Name = 9862
REMARK  6 active torsions:
REMARK  status: ('A' for Active; 'I' for Inactive)
REMARK    1  A    between atoms: C_2  and  C_3
REMARK    2  A    between atoms: C_2  and  C_4
REMARK    3  A    between atoms: C_3  and  C_6
REMARK    4  A    between atoms: C_5  and  C_7
REMARK    5  A    between atoms: C_5  and  C_8
REMARK    6  A    between atoms: C_6  and  C_9
REMARK                            x       y       z     vdW  Elec       q    Type
REMARK                         _______ _______ _______ _____ _____    ______ ____
ROOT
ATOM      1  C   UNL     1      -1.830   6.850 -12.057  0.00  0.00    +0.000 C 
ATOM      2  H   UNL     1      -2.588   6.954 -12.842  0.00  0.00    +0.000 HD
ATOM      3  H   UNL     1      -1.327   5.897 -12.264  0.00  0.00    +0.000 HD
ENDROOT
BRANCH   1   4
ATOM      4  C   UNL     1      -0.827   7.998 -12.128  0.00  0.00    +0.000 C 
ATOM      5  H   UNL     1      -0.318   7.997 -13.100  0.00  0.00    +0.000 HD
ATOM      6  H   UNL     1      -0.071   7.887 -11.342  0.00  0.00    +0.000 HD
BRANCH   4   8
ATOM      7  O   UNL     1      -2.300   9.813 -12.747  0.00  0.00    +0.000 OA
ATOM      8  C   UNL     1      -1.482   9.356 -11.949  0.00  0.00    +0.000 C 
BRANCH   8   9
ATOM      9  C   UNL     1      -1.078  10.132 -10.722  0.00  0.00    +0.000 C 
ATOM     10  H   UNL     1      -1.254   9.524  -9.830  0.00  0.00    +0.000 HD
ATOM     11  H   UNL     1      -0.014  10.380 -10.776  0.00  0.00    +0.000 HD
ATOM     12  H   UNL     1      -1.655  11.058 -10.668  0.00  0.00    +0.000 HD
ENDBRANCH   8   9
ENDBRANCH   4   8
ENDBRANCH   1   4
BRANCH   1  13
ATOM     13  C   UNL     1      -2.468   6.766 -10.699  0.00  0.00    +0.000 C 
ATOM     14  C   UNL     1      -3.782   6.745 -10.406  0.00  0.00    +0.000 C 
ATOM     15  H   UNL     1      -1.757   6.707  -9.877  0.00  0.00    +0.000 HD
BRANCH  14  16
ATOM     16  C   UNL     1      -4.243   6.621  -8.979  0.00  0.00    +0.000 C 
ATOM     17  H   UNL     1      -5.237   7.065  -8.862  0.00  0.00    +0.000 HD
ATOM     18  H   UNL     1      -3.549   7.141  -8.311  0.00  0.00    +0.000 HD
ATOM     19  H   UNL     1      -4.305   5.579  -8.649  0.00  0.00    +0.000 HD
ENDBRANCH  14  16
BRANCH  14  20
ATOM     20  C   UNL     1      -4.893   6.849 -11.413  0.00  0.00    +0.000 C 
ATOM     21  H   UNL     1      -5.099   5.905 -11.925  0.00  0.00    +0.000 HD
ATOM     22  H   UNL     1      -4.635   7.582 -12.185  0.00  0.00    +0.000 HD
ATOM     23  H   UNL     1      -5.816   7.174 -10.923  0.00  0.00    +0.000 HD
ENDBRANCH  14  20
ENDBRANCH   1  13
TORSDOF 6
ENDMDL
MODEL 5
REMARK VINA RESULT:    -4.131      2.463      4.700
REMARK INTER + INTRA:          -5.485
REMARK INTER:                  -5.265
REMARK INTRA:                  -0.221
REMARK UNBOUND:                -0.268
REMARK  Name = 9862
REMARK  6 active torsions:
REMARK  status: ('A' for Active; 'I' for Inactive)
REMARK    1  A    between atoms: C_2  and  C_3
REMARK    2  A    between atoms: C_2  and  C_4
REMARK    3  A    between atoms: C_3  and  C_6
REMARK    4  A    between atoms: C_5  and  C_7
REMARK    5  A    between atoms: C_5  and  C_8
REMARK    6  A    between atoms: C_6  and  C_9
REMARK                            x       y       z     vdW  Elec       q    Type
REMARK                         _______ _______ _______ _____ _____    ______ ____
ROOT
ATOM      1  C   UNL     1       6.546  11.316  -0.177  0.00  0.00    +0.000 C 
ATOM      2  H   UNL     1       7.448  11.510   0.415  0.00  0.00    +0.000 HD
ATOM      3  H   UNL     1       6.033  12.282  -0.250  0.00  0.00    +0.000 HD
ENDROOT
BRANCH   1   4
ATOM      4  C   UNL     1       6.920  10.814  -1.570  0.00  0.00    +0.000 C 
ATOM      5  H   UNL     1       7.307  11.640  -2.178  0.00  0.00    +0.000 HD
ATOM      6  H   UNL     1       6.037  10.400  -2.071  0.00  0.00    +0.000 HD
BRANCH   4   8
ATOM      7  O   UNL     1       7.729   8.542  -1.744  0.00  0.00    +0.000 OA
ATOM      8  C   UNL     1       7.980   9.728  -1.532  0.00  0.00    +0.000 C 
BRANCH   8   9
ATOM      9  C   UNL     1       9.383  10.180  -1.219  0.00  0.00    +0.000 C 
ATOM     10  H   UNL     1      10.020  10.030  -2.095  0.00  0.00    +0.000 HD
ATOM     11  H   UNL     1       9.380  11.243  -0.962  0.00  0.00    +0.000 HD
ATOM     12  H   UNL     1       9.770   9.612  -0.370  0.00  0.00    +0.000 HD
ENDBRANCH   8   9
ENDBRANCH   4   8
ENDBRANCH   1   4
BRANCH   1  13
ATOM     13  C   UNL     1       5.638  10.346   0.526  0.00  0.00    +0.000 C 
ATOM     14  C   UNL     1       4.315  10.468   0.744  0.00  0.00    +0.000 C 
ATOM     15  H   UNL     1       6.137   9.446   0.880  0.00  0.00    +0.000 HD
BRANCH  14  16
ATOM     16  C   UNL     1       3.553   9.372   1.439  0.00  0.00    +0.000 C 
ATOM     17  H   UNL     1       3.680   8.424   0.907  0.00  0.00    +0.000 HD
ATOM     18  H   UNL     1       2.486   9.614   1.470  0.00  0.00    +0.000 HD
ATOM     19  H   UNL     1       3.889   9.220   2.471  0.00  0.00    +0.000 HD
ENDBRANCH  14  16
BRANCH  14  20
ATOM     20  C   UNL     1       3.480  11.653   0.350  0.00  0.00    +0.000 C 
ATOM     21  H   UNL     1       3.378  12.392   1.148  0.00  0.00    +0.000 HD
ATOM     22  H   UNL     1       2.468  11.328   0.082  0.00  0.00    +0.000 HD
ATOM     23  H   UNL     1       3.922  12.154  -0.517  0.00  0.00    +0.000 HD
ENDBRANCH  14  20
ENDBRANCH   1  13
TORSDOF 6
ENDMDL
MODEL 6
REMARK VINA RESULT:    -4.060     13.435     14.959
REMARK INTER + INTRA:          -5.395
REMARK INTER:                  -5.234
REMARK INTRA:                  -0.161
REMARK UNBOUND:                -0.268
REMARK  Name = 9862
REMARK  6 active torsions:
REMARK  status: ('A' for Active; 'I' for Inactive)
REMARK    1  A    between atoms: C_2  and  C_3
REMARK    2  A    between atoms: C_2  and  C_4
REMARK    3  A    between atoms: C_3  and  C_6
REMARK    4  A    between atoms: C_5  and  C_7
REMARK    5  A    between atoms: C_5  and  C_8
REMARK    6  A    between atoms: C_6  and  C_9
REMARK                            x       y       z     vdW  Elec       q    Type
REMARK                         _______ _______ _______ _____ _____    ______ ____
ROOT
ATOM      1  C   UNL     1      -1.601   7.193 -11.566  0.00  0.00    +0.000 C 
ATOM      2  H   UNL     1      -0.962   6.393 -11.958  0.00  0.00    +0.000 HD
ATOM      3  H   UNL     1      -0.937   7.830 -10.969  0.00  0.00    +0.000 HD
ENDROOT
BRANCH   1   4
ATOM      4  C   UNL     1      -2.209   7.999 -12.711  0.00  0.00    +0.000 C 
ATOM      5  H   UNL     1      -2.416   9.025 -12.383  0.00  0.00    +0.000 HD
ATOM      6  H   UNL     1      -3.152   7.543 -13.034  0.00  0.00    +0.000 HD
BRANCH   4   8
ATOM      7  O   UNL     1      -1.528   7.478 -14.972  0.00  0.00    +0.000 OA
ATOM      8  C   UNL     1      -1.295   8.074 -13.921  0.00  0.00    +0.000 C 
BRANCH   8   9
ATOM      9  C   UNL     1      -0.064   8.929 -13.771  0.00  0.00    +0.000 C 
ATOM     10  H   UNL     1      -0.345   9.908 -13.373  0.00  0.00    +0.000 HD
ATOM     11  H   UNL     1       0.635   8.453 -13.078  0.00  0.00    +0.000 HD
ATOM     12  H   UNL     1       0.424   9.043 -14.742  0.00  0.00    +0.000 HD
ENDBRANCH   8   9
ENDBRANCH   4   8
ENDBRANCH   1   4
BRANCH   1  13
ATOM     13  C   UNL     1      -2.667   6.639 -10.664  0.00  0.00    +0.000 C 
ATOM     14  C   UNL     1      -3.208   7.218  -9.575  0.00  0.00    +0.000 C 
ATOM     15  H   UNL     1      -3.031   5.656 -10.956  0.00  0.00    +0.000 HD
BRANCH  14  16
ATOM     16  C   UNL     1      -4.300   6.525  -8.805  0.00  0.00    +0.000 C 
ATOM     17  H   UNL     1      -5.171   7.181  -8.710  0.00  0.00    +0.000 HD
ATOM     18  H   UNL     1      -3.948   6.265  -7.801  0.00  0.00    +0.000 HD
ATOM     19  H   UNL     1      -4.631   5.602  -9.290  0.00  0.00    +0.000 HD
ENDBRANCH  14  16
BRANCH  14  20
ATOM     20  C   UNL     1      -2.803   8.553  -9.016  0.00  0.00    +0.000 C 
ATOM     21  H   UNL     1      -2.053   9.065  -9.625  0.00  0.00    +0.000 HD
ATOM     22  H   UNL     1      -2.372   8.428  -8.016  0.00  0.00    +0.000 HD
ATOM     23  H   UNL     1      -3.676   9.209  -8.936  0.00  0.00    +0.000 HD
ENDBRANCH  14  20
ENDBRANCH   1  13
TORSDOF 6
ENDMDL
MODEL 7
REMARK VINA RESULT:    -3.997     29.087     30.237
REMARK INTER + INTRA:          -5.315
REMARK INTER:                  -5.417
REMARK INTRA:                   0.102
REMARK UNBOUND:                -0.268
REMARK  Name = 9862
REMARK  6 active torsions:
REMARK  status: ('A' for Active; 'I' for Inactive)
REMARK    1  A    between atoms: C_2  and  C_3
REMARK    2  A    between atoms: C_2  and  C_4
REMARK    3  A    between atoms: C_3  and  C_6
REMARK    4  A    between atoms: C_5  and  C_7
REMARK    5  A    between atoms: C_5  and  C_8
REMARK    6  A    between atoms: C_6  and  C_9
REMARK                            x       y       z     vdW  Elec       q    Type
REMARK                         _______ _______ _______ _____ _____    ______ ____
ROOT
ATOM      1  C   UNL     1     -20.968  -4.147   5.119  0.00  0.00    +0.000 C 
ATOM      2  H   UNL     1     -22.051  -4.240   4.976  0.00  0.00    +0.000 HD
ATOM      3  H   UNL     1     -20.694  -4.961   5.802  0.00  0.00    +0.000 HD
ENDROOT
BRANCH   1   4
ATOM      4  C   UNL     1     -20.239  -4.312   3.788  0.00  0.00    +0.000 C 
ATOM      5  H   UNL     1     -20.051  -3.331   3.336  0.00  0.00    +0.000 HD
ATOM      6  H   UNL     1     -20.849  -4.901   3.094  0.00  0.00    +0.000 HD
BRANCH   4   8
ATOM      7  O   UNL     1     -18.546  -5.554   4.988  0.00  0.00    +0.000 OA
ATOM      8  C   UNL     1     -18.902  -5.016   3.940  0.00  0.00    +0.000 C 
BRANCH   8   9
ATOM      9  C   UNL     1     -18.016  -5.028   2.722  0.00  0.00    +0.000 C 
ATOM     10  H   UNL     1     -17.415  -5.941   2.716  0.00  0.00    +0.000 HD
ATOM     11  H   UNL     1     -18.630  -5.003   1.818  0.00  0.00    +0.000 HD
ATOM     12  H   UNL     1     -17.367  -4.149   2.733  0.00  0.00    +0.000 HD
ENDBRANCH   8   9
ENDBRANCH   4   8
ENDBRANCH   1   4
BRANCH   1  13
ATOM     13  C   UNL     1     -20.620  -2.840   5.773  0.00  0.00    +0.000 C 
ATOM     14  C   UNL     1     -20.756  -1.601   5.261  0.00  0.00    +0.000 C 
ATOM     15  H   UNL     1     -20.223  -2.938   6.781  0.00  0.00    +0.000 HD
BRANCH  14  16
ATOM     16  C   UNL     1     -20.386  -0.393   6.079  0.00  0.00    +0.000 C 
ATOM     17  H   UNL     1     -19.690  -0.674   6.876  0.00  0.00    +0.000 HD
ATOM     18  H   UNL     1     -21.281   0.043   6.536  0.00  0.00    +0.000 HD
ATOM     19  H   UNL     1     -19.906   0.387   5.480  0.00  0.00    +0.000 HD
ENDBRANCH  14  16
BRANCH  14  20
ATOM     20  C   UNL     1     -21.257  -1.287   3.880  0.00  0.00    +0.000 C 
ATOM     21  H   UNL     1     -22.326  -1.059   3.852  0.00  0.00    +0.000 HD
ATOM     22  H   UNL     1     -21.095  -2.144   3.217  0.00  0.00    +0.000 HD
ATOM     23  H   UNL     1     -20.719  -0.427   3.470  0.00  0.00    +0.000 HD
ENDBRANCH  14  20
ENDBRANCH   1  13
TORSDOF 6
ENDMDL
MODEL 8
REMARK VINA RESULT:    -3.988     16.017     16.926
REMARK INTER + INTRA:          -5.305
REMARK INTER:                  -5.086
REMARK INTRA:                  -0.218
REMARK UNBOUND:                -0.268
REMARK  Name = 9862
REMARK  6 active torsions:
REMARK  status: ('A' for Active; 'I' for Inactive)
REMARK    1  A    between atoms: C_2  and  C_3
REMARK    2  A    between atoms: C_2  and  C_4
REMARK    3  A    between atoms: C_3  and  C_6
REMARK    4  A    between atoms: C_5  and  C_7
REMARK    5  A    between atoms: C_5  and  C_8
REMARK    6  A    between atoms: C_6  and  C_9
REMARK                            x       y       z     vdW  Elec       q    Type
REMARK                         _______ _______ _______ _____ _____    ______ ____
ROOT
ATOM      1  C   UNL     1      -8.295   6.943  -5.753  0.00  0.00    +0.000 C 
ATOM      2  H   UNL     1      -7.425   6.825  -6.409  0.00  0.00    +0.000 HD
ATOM      3  H   UNL     1      -8.010   7.713  -5.025  0.00  0.00    +0.000 HD
ENDROOT
BRANCH   1   4
ATOM      4  C   UNL     1      -9.510   7.405  -6.554  0.00  0.00    +0.000 C 
ATOM      5  H   UNL     1     -10.152   6.549  -6.795  0.00  0.00    +0.000 HD
ATOM      6  H   UNL     1      -9.187   7.870  -7.493  0.00  0.00    +0.000 HD
BRANCH   4   8
ATOM      7  O   UNL     1     -10.072   9.618  -5.758  0.00  0.00    +0.000 OA
ATOM      8  C   UNL     1     -10.352   8.420  -5.802  0.00  0.00    +0.000 C 
BRANCH   8   9
ATOM      9  C   UNL     1     -11.571   7.882  -5.100  0.00  0.00    +0.000 C 
ATOM     10  H   UNL     1     -11.913   6.975  -5.605  0.00  0.00    +0.000 HD
ATOM     11  H   UNL     1     -11.322   7.638  -4.063  0.00  0.00    +0.000 HD
ATOM     12  H   UNL     1     -12.360   8.637  -5.106  0.00  0.00    +0.000 HD
ENDBRANCH   8   9
ENDBRANCH   4   8
ENDBRANCH   1   4
BRANCH   1  13
ATOM     13  C   UNL     1      -8.586   5.670  -5.009  0.00  0.00    +0.000 C 
ATOM     14  C   UNL     1      -8.454   4.406  -5.456  0.00  0.00    +0.000 C 
ATOM     15  H   UNL     1      -8.933   5.820  -3.989  0.00  0.00    +0.000 HD
BRANCH  14  16
ATOM     16  C   UNL     1      -8.760   3.242  -4.553  0.00  0.00    +0.000 C 
ATOM     17  H   UNL     1      -8.537   2.298  -5.061  0.00  0.00    +0.000 HD
ATOM     18  H   UNL     1      -9.819   3.246  -4.276  0.00  0.00    +0.000 HD
ATOM     19  H   UNL     1      -8.175   3.266  -3.627  0.00  0.00    +0.000 HD
ENDBRANCH  14  16
BRANCH  14  20
ATOM     20  C   UNL     1      -8.017   4.021  -6.842  0.00  0.00    +0.000 C 
ATOM     21  H   UNL     1      -6.971   4.262  -7.045  0.00  0.00    +0.000 HD
ATOM     22  H   UNL     1      -8.619   4.553  -7.587  0.00  0.00    +0.000 HD
ATOM     23  H   UNL     1      -8.151   2.945  -6.993  0.00  0.00    +0.000 HD
ENDBRANCH  14  20
ENDBRANCH   1  13
TORSDOF 6
ENDMDL
MODEL 9
REMARK VINA RESULT:    -3.940     29.029     29.991
REMARK INTER + INTRA:          -5.245
REMARK INTER:                  -4.977
REMARK INTRA:                  -0.268
REMARK UNBOUND:                -0.268
REMARK  Name = 9862
REMARK  6 active torsions:
REMARK  status: ('A' for Active; 'I' for Inactive)
REMARK    1  A    between atoms: C_2  and  C_3
REMARK    2  A    between atoms: C_2  and  C_4
REMARK    3  A    between atoms: C_3  and  C_6
REMARK    4  A    between atoms: C_5  and  C_7
REMARK    5  A    between atoms: C_5  and  C_8
REMARK    6  A    between atoms: C_6  and  C_9
REMARK                            x       y       z     vdW  Elec       q    Type
REMARK                         _______ _______ _______ _____ _____    ______ ____
ROOT
ATOM      1  C   UNL     1     -21.245  -3.468   4.303  0.00  0.00    +0.000 C 
ATOM      2  H   UNL     1     -20.998  -3.830   5.308  0.00  0.00    +0.000 HD
ATOM      3  H   UNL     1     -22.168  -3.992   4.024  0.00  0.00    +0.000 HD
ENDROOT
BRANCH   1   4
ATOM      4  C   UNL     1     -21.484  -1.960   4.323  0.00  0.00    +0.000 C 
ATOM      5  H   UNL     1     -22.554  -1.748   4.440  0.00  0.00    +0.000 HD
ATOM      6  H   UNL     1     -21.145  -1.512   3.381  0.00  0.00    +0.000 HD
BRANCH   4   8
ATOM      7  O   UNL     1     -20.332  -0.113   5.374  0.00  0.00    +0.000 OA
ATOM      8  C   UNL     1     -20.747  -1.268   5.455  0.00  0.00    +0.000 C 
BRANCH   8   9
ATOM      9  C   UNL     1     -20.544  -2.079   6.709  0.00  0.00    +0.000 C 
ATOM     10  H   UNL     1     -21.268  -1.768   7.467  0.00  0.00    +0.000 HD
ATOM     11  H   UNL     1     -20.695  -3.140   6.491  0.00  0.00    +0.000 HD
ATOM     12  H   UNL     1     -19.526  -1.935   7.078  0.00  0.00    +0.000 HD
ENDBRANCH   8   9
ENDBRANCH   4   8
ENDBRANCH   1   4
BRANCH   1  13
ATOM     13  C   UNL     1     -20.172  -3.836   3.318  0.00  0.00    +0.000 C 
ATOM     14  C   UNL     1     -19.171  -4.722   3.484  0.00  0.00    +0.000 C 
ATOM     15  H   UNL     1     -20.246  -3.317   2.364  0.00  0.00    +0.000 HD
BRANCH  14  16
ATOM     16  C   UNL     1     -18.200  -4.993   2.366  0.00  0.00    +0.000 C 
ATOM     17  H   UNL     1     -17.460  -5.737   2.678  0.00  0.00    +0.000 HD
ATOM     18  H   UNL     1     -17.673  -4.073   2.092  0.00  0.00    +0.000 HD
ATOM     19  H   UNL     1     -18.694  -5.373   1.466  0.00  0.00    +0.000 HD
ENDBRANCH  14  16
BRANCH  14  20
ATOM     20  C   UNL     1     -18.905  -5.500   4.741  0.00  0.00    +0.000 C 
ATOM     21  H   UNL     1     -19.110  -4.930   5.651  0.00  0.00    +0.000 HD
ATOM     22  H   UNL     1     -17.853  -5.802   4.782  0.00  0.00    +0.000 HD
ATOM     23  H   UNL     1     -19.524  -6.403   4.763  0.00  0.00    +0.000 HD
ENDBRANCH  14  20
ENDBRANCH   1  13
TORSDOF 6
ENDMDL
MODEL 10
REMARK VINA RESULT:    -3.885     17.750     18.671
REMARK INTER + INTRA:          -5.174
REMARK INTER:                  -5.051
REMARK INTRA:                  -0.123
REMARK UNBOUND:                -0.268
REMARK  Name = 9862
REMARK  6 active torsions:
REMARK  status: ('A' for Active; 'I' for Inactive)
REMARK    1  A    between atoms: C_2  and  C_3
REMARK    2  A    between atoms: C_2  and  C_4
REMARK    3  A    between atoms: C_3  and  C_6
REMARK    4  A    between atoms: C_5  and  C_7
REMARK    5  A    between atoms: C_5  and  C_8
REMARK    6  A    between atoms: C_6  and  C_9
REMARK                            x       y       z     vdW  Elec       q    Type
REMARK                         _______ _______ _______ _____ _____    ______ ____
ROOT
ATOM      1  C   UNL     1       4.229  -0.787 -13.976  0.00  0.00    +0.000 C 
ATOM      2  H   UNL     1       4.814  -0.664 -13.057  0.00  0.00    +0.000 HD
ATOM      3  H   UNL     1       3.876  -1.825 -13.960  0.00  0.00    +0.000 HD
ENDROOT
BRANCH   1   4
ATOM      4  C   UNL     1       3.039   0.170 -13.983  0.00  0.00    +0.000 C 
ATOM      5  H   UNL     1       2.626   0.253 -14.995  0.00  0.00    +0.000 HD
ATOM      6  H   UNL     1       3.355   1.168 -13.656  0.00  0.00    +0.000 HD
BRANCH   4   8
ATOM      7  O   UNL     1       1.671  -1.470 -12.849  0.00  0.00    +0.000 OA
ATOM      8  C   UNL     1       1.921  -0.284 -13.061  0.00  0.00    +0.000 C 
BRANCH   8   9
ATOM      9  C   UNL     1       1.118   0.807 -12.404  0.00  0.00    +0.000 C 
ATOM     10  H   UNL     1       1.780   1.443 -11.810  0.00  0.00    +0.000 HD
ATOM     11  H   UNL     1       0.632   1.420 -13.168  0.00  0.00    +0.000 HD
ATOM     12  H   UNL     1       0.350   0.364 -11.766  0.00  0.00    +0.000 HD
ENDBRANCH   8   9
ENDBRANCH   4   8
ENDBRANCH   1   4
BRANCH   1  13
ATOM     13  C   UNL     1       5.089  -0.595 -15.193  0.00  0.00    +0.000 C 
ATOM     14  C   UNL     1       5.470  -1.527 -16.088  0.00  0.00    +0.000 C 
ATOM     15  H   UNL     1       5.419   0.431 -15.348  0.00  0.00    +0.000 HD
BRANCH  14  16
ATOM     16  C   UNL     1       6.310  -1.145 -17.276  0.00  0.00    +0.000 C 
ATOM     17  H   UNL     1       5.692  -0.657 -18.037  0.00  0.00    +0.000 HD
ATOM     18  H   UNL     1       6.768  -2.036 -17.718  0.00  0.00    +0.000 HD
ATOM     19  H   UNL     1       7.118  -0.454 -17.012  0.00  0.00    +0.000 HD
ENDBRANCH  14  16
BRANCH  14  20
ATOM     20  C   UNL     1       5.130  -2.989 -16.010  0.00  0.00    +0.000 C 
ATOM     21  H   UNL     1       6.003  -3.624 -15.843  0.00  0.00    +0.000 HD
ATOM     22  H   UNL     1       4.668  -3.318 -16.946  0.00  0.00    +0.000 HD
ATOM     23  H   UNL     1       4.423  -3.168 -15.193  0.00  0.00    +0.000 HD
ENDBRANCH  14  20
ENDBRANCH   1  13
TORSDOF 6
ENDMDL
