MODEL 1
REMARK VINA RESULT:    -5.196      0.000      0.000
REMARK INTER + INTRA:          -5.727
REMARK INTER:                  -5.643
REMARK INTRA:                  -0.084
REMARK UNBOUND:                -0.076
REMARK  Name = 7410
REMARK  2 active torsions:
REMARK  status: ('A' for Active; 'I' for Inactive)
REMARK    1  A    between atoms: C_2  and  C_5
REMARK    2  A    between atoms: C_5  and  C_9
REMARK                            x       y       z     vdW  Elec       q    Type
REMARK                         _______ _______ _______ _____ _____    ______ ____
ROOT
ATOM      1  C   UNL     1      -1.827   8.697 -10.614  0.00  0.00    +0.000 A 
ATOM      2  C   UNL     1      -2.233   9.281  -9.413  0.00  0.00    +0.000 A 
ATOM      3  C   UNL     1      -2.236   7.403 -10.932  0.00  0.00    +0.000 A 
ATOM      4  C   UNL     1      -3.047   8.570  -8.532  0.00  0.00    +0.000 A 
ATOM      5  C   UNL     1      -3.050   6.691 -10.051  0.00  0.00    +0.000 A 
ATOM      6  C   UNL     1      -3.456   7.275  -8.851  0.00  0.00    +0.000 A 
ATOM      7  H   UNL     1      -1.941  10.285  -9.122  0.00  0.00    +0.000 HD
ATOM      8  H   UNL     1      -1.932   6.928 -11.862  0.00  0.00    +0.000 HD
ATOM      9  H   UNL     1      -3.364   9.023  -7.598  0.00  0.00    +0.000 HD
ATOM     10  H   UNL     1      -3.368   5.683 -10.299  0.00  0.00    +0.000 HD
ATOM     11  H   UNL     1      -4.090   6.721  -8.165  0.00  0.00    +0.000 HD
ENDROOT
BRANCH   1  13
ATOM     12  O   UNL     1      -0.795  10.664 -11.460  0.00  0.00    +0.000 OA
ATOM     13  C   UNL     1      -0.978   9.438 -11.532  0.00  0.00    +0.000 C 
BRANCH  13  14
ATOM     14  C   UNL     1      -0.269   8.689 -12.648  0.00  0.00    +0.000 C 
ATOM     15  H   UNL     1       0.156   9.392 -13.369  0.00  0.00    +0.000 HD
ATOM     16  H   UNL     1      -0.995   8.064 -13.179  0.00  0.00    +0.000 HD
ATOM     17  H   UNL     1       0.500   8.030 -12.236  0.00  0.00    +0.000 HD
ENDBRANCH  13  14
ENDBRANCH   1  13
TORSDOF 2
ENDMDL
MODEL 2
REMARK VINA RESULT:    -5.177      0.137      1.616
REMARK INTER + INTRA:          -5.707
REMARK INTER:                  -5.623
REMARK INTRA:                  -0.084
REMARK UNBOUND:                -0.076
REMARK  Name = 7410
REMARK  2 active torsions:
REMARK  status: ('A' for Active; 'I' for Inactive)
REMARK    1  A    between atoms: C_2  and  C_5
REMARK    2  A    between atoms: C_5  and  C_9
REMARK                            x       y       z     vdW  Elec       q    Type
REMARK                         _______ _______ _______ _____ _____    ______ ____
ROOT
ATOM      1  C   UNL     1      -1.856   8.709 -10.510  0.00  0.00    +0.000 A 
ATOM      2  C   UNL     1      -2.255   7.429 -10.895  0.00  0.00    +0.000 A 
ATOM      3  C   UNL     1      -2.288   9.238  -9.294  0.00  0.00    +0.000 A 
ATOM      4  C   UNL     1      -3.086   6.678 -10.064  0.00  0.00    +0.000 A 
ATOM      5  C   UNL     1      -3.120   8.487  -8.463  0.00  0.00    +0.000 A 
ATOM      6  C   UNL     1      -3.519   7.207  -8.848  0.00  0.00    +0.000 A 
ATOM      7  H   UNL     1      -1.944   6.976 -11.831  0.00  0.00    +0.000 HD
ATOM      8  H   UNL     1      -1.990  10.233  -8.974  0.00  0.00    +0.000 HD
ATOM      9  H   UNL     1      -3.397   5.682 -10.363  0.00  0.00    +0.000 HD
ATOM     10  H   UNL     1      -3.457   8.899  -7.516  0.00  0.00    +0.000 HD
ATOM     11  H   UNL     1      -4.166   6.622  -8.201  0.00  0.00    +0.000 HD
ENDROOT
BRANCH   1  13
ATOM     12  O   UNL     1      -0.798  10.710 -11.234  0.00  0.00    +0.000 OA
ATOM     13  C   UNL     1      -0.989   9.492 -11.375  0.00  0.00    +0.000 C 
BRANCH  13  14
ATOM     14  C   UNL     1      -0.270   8.799 -12.521  0.00  0.00    +0.000 C 
ATOM     15  H   UNL     1      -0.956   8.625 -13.353  0.00  0.00    +0.000 HD
ATOM     16  H   UNL     1       0.093   7.823 -12.179  0.00  0.00    +0.000 HD
ATOM     17  H   UNL     1       0.598   9.384 -12.836  0.00  0.00    +0.000 HD
ENDBRANCH  13  14
ENDBRANCH   1  13
TORSDOF 2
ENDMDL
MODEL 3
REMARK VINA RESULT:    -5.084      1.287      2.039
REMARK INTER + INTRA:          -5.606
REMARK INTER:                  -5.525
REMARK INTRA:                  -0.080
REMARK UNBOUND:                -0.076
REMARK  Name = 7410
REMARK  2 active torsions:
REMARK  status: ('A' for Active; 'I' for Inactive)
REMARK    1  A    between atoms: C_2  and  C_5
REMARK    2  A    between atoms: C_5  and  C_9
REMARK                            x       y       z     vdW  Elec       q    Type
REMARK                         _______ _______ _______ _____ _____    ______ ____
ROOT
ATOM      1  C   UNL     1      -1.875   7.995 -11.067  0.00  0.00    +0.000 A 
ATOM      2  C   UNL     1      -2.549   6.857 -10.624  0.00  0.00    +0.000 A 
ATOM      3  C   UNL     1      -1.878   9.154 -10.290  0.00  0.00    +0.000 A 
ATOM      4  C   UNL     1      -3.227   6.878  -9.405  0.00  0.00    +0.000 A 
ATOM      5  C   UNL     1      -2.556   9.175  -9.071  0.00  0.00    +0.000 A 
ATOM      6  C   UNL     1      -3.231   8.037  -8.629  0.00  0.00    +0.000 A 
ATOM      7  H   UNL     1      -2.575   5.933 -11.192  0.00  0.00    +0.000 HD
ATOM      8  H   UNL     1      -1.360  10.052 -10.615  0.00  0.00    +0.000 HD
ATOM      9  H   UNL     1      -3.753   5.993  -9.059  0.00  0.00    +0.000 HD
ATOM     10  H   UNL     1      -2.559  10.077  -8.467  0.00  0.00    +0.000 HD
ATOM     11  H   UNL     1      -3.759   8.054  -7.680  0.00  0.00    +0.000 HD
ENDROOT
BRANCH   1  13
ATOM     12  O   UNL     1      -0.114   8.594 -12.545  0.00  0.00    +0.000 OA
ATOM     13  C   UNL     1      -1.168   7.973 -12.336  0.00  0.00    +0.000 C 
BRANCH  13  14
ATOM     14  C   UNL     1      -1.735   7.152 -13.482  0.00  0.00    +0.000 C 
ATOM     15  H   UNL     1      -2.033   6.161 -13.130  0.00  0.00    +0.000 HD
ATOM     16  H   UNL     1      -0.960   7.015 -14.244  0.00  0.00    +0.000 HD
ATOM     17  H   UNL     1      -2.573   7.676 -13.950  0.00  0.00    +0.000 HD
ENDBRANCH  13  14
ENDBRANCH   1  13
TORSDOF 2
ENDMDL
MODEL 4
REMARK VINA RESULT:    -4.874      1.731      3.867
REMARK INTER + INTRA:          -5.378
REMARK INTER:                  -5.293
REMARK INTRA:                  -0.084
REMARK UNBOUND:                -0.076
REMARK  Name = 7410
REMARK  2 active torsions:
REMARK  status: ('A' for Active; 'I' for Inactive)
REMARK    1  A    between atoms: C_2  and  C_5
REMARK    2  A    between atoms: C_5  and  C_9
REMARK                            x       y       z     vdW  Elec       q    Type
REMARK                         _______ _______ _______ _____ _____    ______ ____
ROOT
ATOM      1  C   UNL     1      -2.343   8.109 -10.165  0.00  0.00    +0.000 A 
ATOM      2  C   UNL     1      -2.107   7.059 -11.053  0.00  0.00    +0.000 A 
ATOM      3  C   UNL     1      -1.778   9.362 -10.401  0.00  0.00    +0.000 A 
ATOM      4  C   UNL     1      -1.306   7.263 -12.177  0.00  0.00    +0.000 A 
ATOM      5  C   UNL     1      -0.977   9.566 -11.525  0.00  0.00    +0.000 A 
ATOM      6  C   UNL     1      -0.741   8.516 -12.413  0.00  0.00    +0.000 A 
ATOM      7  H   UNL     1      -2.525   6.068 -10.912  0.00  0.00    +0.000 HD
ATOM      8  H   UNL     1      -1.947  10.194  -9.723  0.00  0.00    +0.000 HD
ATOM      9  H   UNL     1      -1.122   6.447 -12.869  0.00  0.00    +0.000 HD
ATOM     10  H   UNL     1      -0.536  10.542 -11.708  0.00  0.00    +0.000 HD
ATOM     11  H   UNL     1      -0.117   8.675 -13.287  0.00  0.00    +0.000 HD
ENDROOT
BRANCH   1  13
ATOM     12  O   UNL     1      -3.240   8.692  -8.044  0.00  0.00    +0.000 OA
ATOM     13  C   UNL     1      -3.177   7.897  -8.994  0.00  0.00    +0.000 C 
BRANCH  13  14
ATOM     14  C   UNL     1      -4.026   6.639  -8.911  0.00  0.00    +0.000 C 
ATOM     15  H   UNL     1      -3.730   6.035  -8.051  0.00  0.00    +0.000 HD
ATOM     16  H   UNL     1      -3.865   6.037  -9.813  0.00  0.00    +0.000 HD
ATOM     17  H   UNL     1      -5.088   6.897  -8.869  0.00  0.00    +0.000 HD
ENDBRANCH  13  14
ENDBRANCH   1  13
TORSDOF 2
ENDMDL
MODEL 5
REMARK VINA RESULT:    -4.844      9.073     10.027
REMARK INTER + INTRA:          -5.345
REMARK INTER:                  -5.270
REMARK INTRA:                  -0.075
REMARK UNBOUND:                -0.076
REMARK  Name = 7410
REMARK  2 active torsions:
REMARK  status: ('A' for Active; 'I' for Inactive)
REMARK    1  A    between atoms: C_2  and  C_5
REMARK    2  A    between atoms: C_5  and  C_9
REMARK                            x       y       z     vdW  Elec       q    Type
REMARK                         _______ _______ _______ _____ _____    ______ ____
ROOT
ATOM      1  C   UNL     1      -9.767   5.980  -5.381  0.00  0.00    +0.000 A 
ATOM      2  C   UNL     1     -10.660   4.917  -5.513  0.00  0.00    +0.000 A 
ATOM      3  C   UNL     1      -8.467   5.747  -4.932  0.00  0.00    +0.000 A 
ATOM      4  C   UNL     1     -10.253   3.621  -5.195  0.00  0.00    +0.000 A 
ATOM      5  C   UNL     1      -8.060   4.451  -4.614  0.00  0.00    +0.000 A 
ATOM      6  C   UNL     1      -8.954   3.388  -4.746  0.00  0.00    +0.000 A 
ATOM      7  H   UNL     1     -11.680   5.048  -5.858  0.00  0.00    +0.000 HD
ATOM      8  H   UNL     1      -7.754   6.560  -4.821  0.00  0.00    +0.000 HD
ATOM      9  H   UNL     1     -10.948   2.792  -5.298  0.00  0.00    +0.000 HD
ATOM     10  H   UNL     1      -7.048   4.270  -4.264  0.00  0.00    +0.000 HD
ATOM     11  H   UNL     1      -8.637   2.379  -4.499  0.00  0.00    +0.000 HD
ENDROOT
BRANCH   1  13
ATOM     12  O   UNL     1      -9.580   8.066  -6.503  0.00  0.00    +0.000 OA
ATOM     13  C   UNL     1     -10.190   7.330  -5.711  0.00  0.00    +0.000 C 
BRANCH  13  14
ATOM     14  C   UNL     1     -11.446   7.889  -5.063  0.00  0.00    +0.000 C 
ATOM     15  H   UNL     1     -12.206   8.097  -5.820  0.00  0.00    +0.000 HD
ATOM     16  H   UNL     1     -11.204   8.835  -4.566  0.00  0.00    +0.000 HD
ATOM     17  H   UNL     1     -11.822   7.200  -4.302  0.00  0.00    +0.000 HD
ENDBRANCH  13  14
ENDBRANCH   1  13
TORSDOF 2
ENDMDL
MODEL 6
REMARK VINA RESULT:    -4.757      2.566      4.024
REMARK INTER + INTRA:          -5.250
REMARK INTER:                  -5.179
REMARK INTRA:                  -0.071
REMARK UNBOUND:                -0.076
REMARK  Name = 7410
REMARK  2 active torsions:
REMARK  status: ('A' for Active; 'I' for Inactive)
REMARK    1  A    between atoms: C_2  and  C_5
REMARK    2  A    between atoms: C_5  and  C_9
REMARK                            x       y       z     vdW  Elec       q    Type
REMARK                         _______ _______ _______ _____ _____    ______ ____
ROOT
ATOM      1  C   UNL     1      -3.060   7.069 -10.778  0.00  0.00    +0.000 A 
ATOM      2  C   UNL     1      -4.191   6.983 -11.589  0.00  0.00    +0.000 A 
ATOM      3  C   UNL     1      -1.788   6.989 -11.344  0.00  0.00    +0.000 A 
ATOM      4  C   UNL     1      -4.050   6.818 -12.967  0.00  0.00    +0.000 A 
ATOM      5  C   UNL     1      -1.647   6.823 -12.722  0.00  0.00    +0.000 A 
ATOM      6  C   UNL     1      -2.778   6.738 -13.534  0.00  0.00    +0.000 A 
ATOM      7  H   UNL     1      -5.200   7.040 -11.195  0.00  0.00    +0.000 HD
ATOM      8  H   UNL     1      -0.892   7.053 -10.732  0.00  0.00    +0.000 HD
ATOM      9  H   UNL     1      -4.931   6.751 -13.599  0.00  0.00    +0.000 HD
ATOM     10  H   UNL     1      -0.657   6.761 -13.164  0.00  0.00    +0.000 HD
ATOM     11  H   UNL     1      -2.669   6.609 -14.606  0.00  0.00    +0.000 HD
ENDROOT
BRANCH   1  13
ATOM     12  O   UNL     1      -3.586   6.340  -8.578  0.00  0.00    +0.000 OA
ATOM     13  C   UNL     1      -3.206   7.242  -9.342  0.00  0.00    +0.000 C 
BRANCH  13  14
ATOM     14  C   UNL     1      -2.881   8.591  -8.725  0.00  0.00    +0.000 C 
ATOM     15  H   UNL     1      -3.764   9.234  -8.724  0.00  0.00    +0.000 HD
ATOM     16  H   UNL     1      -2.110   9.086  -9.326  0.00  0.00    +0.000 HD
ATOM     17  H   UNL     1      -2.482   8.463  -7.715  0.00  0.00    +0.000 HD
ENDBRANCH  13  14
ENDBRANCH   1  13
TORSDOF 2
ENDMDL
MODEL 7
REMARK VINA RESULT:    -4.719     17.004     18.692
REMARK INTER + INTRA:          -5.209
REMARK INTER:                  -5.130
REMARK INTRA:                  -0.079
REMARK UNBOUND:                -0.076
REMARK  Name = 7410
REMARK  2 active torsions:
REMARK  status: ('A' for Active; 'I' for Inactive)
REMARK    1  A    between atoms: C_2  and  C_5
REMARK    2  A    between atoms: C_5  and  C_9
REMARK                            x       y       z     vdW  Elec       q    Type
REMARK                         _______ _______ _______ _____ _____    ______ ____
ROOT
ATOM      1  C   UNL     1      -8.146  11.507   6.818  0.00  0.00    +0.000 A 
ATOM      2  C   UNL     1      -7.503  12.674   7.233  0.00  0.00    +0.000 A 
ATOM      3  C   UNL     1      -8.032  11.080   5.496  0.00  0.00    +0.000 A 
ATOM      4  C   UNL     1      -6.747  13.413   6.323  0.00  0.00    +0.000 A 
ATOM      5  C   UNL     1      -7.275  11.819   4.586  0.00  0.00    +0.000 A 
ATOM      6  C   UNL     1      -6.632  12.986   5.000  0.00  0.00    +0.000 A 
ATOM      7  H   UNL     1      -7.563  13.046   8.250  0.00  0.00    +0.000 HD
ATOM      8  H   UNL     1      -8.523  10.174   5.151  0.00  0.00    +0.000 HD
ATOM      9  H   UNL     1      -6.246  14.322   6.645  0.00  0.00    +0.000 HD
ATOM     10  H   UNL     1      -7.186  11.487   3.556  0.00  0.00    +0.000 HD
ATOM     11  H   UNL     1      -6.043  13.562   4.293  0.00  0.00    +0.000 HD
ENDROOT
BRANCH   1  13
ATOM     12  O   UNL     1      -9.669  11.249   8.623  0.00  0.00    +0.000 OA
ATOM     13  C   UNL     1      -8.934  10.736   7.765  0.00  0.00    +0.000 C 
BRANCH  13  14
ATOM     14  C   UNL     1      -8.868   9.219   7.717  0.00  0.00    +0.000 C 
ATOM     15  H   UNL     1      -9.349   8.844   6.811  0.00  0.00    +0.000 HD
ATOM     16  H   UNL     1      -9.410   8.808   8.576  0.00  0.00    +0.000 HD
ATOM     17  H   UNL     1      -7.831   8.880   7.786  0.00  0.00    +0.000 HD
ENDBRANCH  13  14
ENDBRANCH   1  13
TORSDOF 2
ENDMDL
MODEL 8
REMARK VINA RESULT:    -4.683     26.263     27.041
REMARK INTER + INTRA:          -5.170
REMARK INTER:                  -5.099
REMARK INTRA:                  -0.071
REMARK UNBOUND:                -0.076
REMARK  Name = 7410
REMARK  2 active torsions:
REMARK  status: ('A' for Active; 'I' for Inactive)
REMARK    1  A    between atoms: C_2  and  C_5
REMARK    2  A    between atoms: C_5  and  C_9
REMARK                            x       y       z     vdW  Elec       q    Type
REMARK                         _______ _______ _______ _____ _____    ______ ____
ROOT
ATOM      1  C   UNL     1     -20.781  -3.053   4.998  0.00  0.00    +0.000 A 
ATOM      2  C   UNL     1     -20.618  -2.986   6.382  0.00  0.00    +0.000 A 
ATOM      3  C   UNL     1     -20.857  -1.881   4.246  0.00  0.00    +0.000 A 
ATOM      4  C   UNL     1     -20.531  -1.745   7.013  0.00  0.00    +0.000 A 
ATOM      5  C   UNL     1     -20.770  -0.640   4.878  0.00  0.00    +0.000 A 
ATOM      6  C   UNL     1     -20.606  -0.572   6.262  0.00  0.00    +0.000 A 
ATOM      7  H   UNL     1     -20.554  -3.869   7.007  0.00  0.00    +0.000 HD
ATOM      8  H   UNL     1     -20.984  -1.909   3.167  0.00  0.00    +0.000 HD
ATOM      9  H   UNL     1     -20.403  -1.691   8.090  0.00  0.00    +0.000 HD
ATOM     10  H   UNL     1     -20.829   0.273   4.293  0.00  0.00    +0.000 HD
ATOM     11  H   UNL     1     -20.538   0.393   6.754  0.00  0.00    +0.000 HD
ENDROOT
BRANCH   1  13
ATOM     12  O   UNL     1     -21.923  -4.795   3.853  0.00  0.00    +0.000 OA
ATOM     13  C   UNL     1     -20.873  -4.345   4.339  0.00  0.00    +0.000 C 
BRANCH  13  14
ATOM     14  C   UNL     1     -19.626  -5.207   4.230  0.00  0.00    +0.000 C 
ATOM     15  H   UNL     1     -18.893  -4.736   3.571  0.00  0.00    +0.000 HD
ATOM     16  H   UNL     1     -19.895  -6.175   3.791  0.00  0.00    +0.000 HD
ATOM     17  H   UNL     1     -19.205  -5.398   5.221  0.00  0.00    +0.000 HD
ENDBRANCH  13  14
ENDBRANCH   1  13
TORSDOF 2
ENDMDL
MODEL 9
REMARK VINA RESULT:    -4.656      1.661      2.476
REMARK INTER + INTRA:          -5.140
REMARK INTER:                  -5.068
REMARK INTRA:                  -0.072
REMARK UNBOUND:                -0.076
REMARK  Name = 7410
REMARK  2 active torsions:
REMARK  status: ('A' for Active; 'I' for Inactive)
REMARK    1  A    between atoms: C_2  and  C_5
REMARK    2  A    between atoms: C_5  and  C_9
REMARK                            x       y       z     vdW  Elec       q    Type
REMARK                         _______ _______ _______ _____ _____    ______ ____
ROOT
ATOM      1  C   UNL     1      -2.903   7.657 -10.713  0.00  0.00    +0.000 A 
ATOM      2  C   UNL     1      -3.921   7.353 -11.617  0.00  0.00    +0.000 A 
ATOM      3  C   UNL     1      -3.023   7.280  -9.376  0.00  0.00    +0.000 A 
ATOM      4  C   UNL     1      -5.058   6.671 -11.183  0.00  0.00    +0.000 A 
ATOM      5  C   UNL     1      -4.160   6.599  -8.942  0.00  0.00    +0.000 A 
ATOM      6  C   UNL     1      -5.178   6.294  -9.846  0.00  0.00    +0.000 A 
ATOM      7  H   UNL     1      -3.874   7.625 -12.666  0.00  0.00    +0.000 HD
ATOM      8  H   UNL     1      -2.243   7.507  -8.654  0.00  0.00    +0.000 HD
ATOM      9  H   UNL     1      -5.851   6.433 -11.886  0.00  0.00    +0.000 HD
ATOM     10  H   UNL     1      -4.253   6.305  -7.900  0.00  0.00    +0.000 HD
ATOM     11  H   UNL     1      -6.063   5.763  -9.508  0.00  0.00    +0.000 HD
ENDROOT
BRANCH   1  13
ATOM     12  O   UNL     1      -0.900   7.894 -11.969  0.00  0.00    +0.000 OA
ATOM     13  C   UNL     1      -1.719   8.368 -11.165  0.00  0.00    +0.000 C 
BRANCH  13  14
ATOM     14  C   UNL     1      -1.450   9.766 -10.635  0.00  0.00    +0.000 C 
ATOM     15  H   UNL     1      -0.625  10.230 -11.181  0.00  0.00    +0.000 HD
ATOM     16  H   UNL     1      -1.158   9.701  -9.581  0.00  0.00    +0.000 HD
ATOM     17  H   UNL     1      -2.356  10.376 -10.691  0.00  0.00    +0.000 HD
ENDBRANCH  13  14
ENDBRANCH   1  13
TORSDOF 2
ENDMDL
MODEL 10
REMARK VINA RESULT:    -4.449     26.306     27.119
REMARK INTER + INTRA:          -4.915
REMARK INTER:                  -4.839
REMARK INTRA:                  -0.076
REMARK UNBOUND:                -0.076
REMARK  Name = 7410
REMARK  2 active torsions:
REMARK  status: ('A' for Active; 'I' for Inactive)
REMARK    1  A    between atoms: C_2  and  C_5
REMARK    2  A    between atoms: C_5  and  C_9
REMARK                            x       y       z     vdW  Elec       q    Type
REMARK                         _______ _______ _______ _____ _____    ______ ____
ROOT
ATOM      1  C   UNL     1     -20.811  -2.660   5.476  0.00  0.00    +0.000 A 
ATOM      2  C   UNL     1     -21.176  -1.895   4.368  0.00  0.00    +0.000 A 
ATOM      3  C   UNL     1     -20.353  -3.966   5.301  0.00  0.00    +0.000 A 
ATOM      4  C   UNL     1     -21.083  -2.437   3.086  0.00  0.00    +0.000 A 
ATOM      5  C   UNL     1     -20.260  -4.508   4.019  0.00  0.00    +0.000 A 
ATOM      6  C   UNL     1     -20.625  -3.742   2.911  0.00  0.00    +0.000 A 
ATOM      7  H   UNL     1     -21.537  -0.876   4.454  0.00  0.00    +0.000 HD
ATOM      8  H   UNL     1     -20.063  -4.581   6.149  0.00  0.00    +0.000 HD
ATOM      9  H   UNL     1     -21.367  -1.842   2.223  0.00  0.00    +0.000 HD
ATOM     10  H   UNL     1     -19.904  -5.524   3.883  0.00  0.00    +0.000 HD
ATOM     11  H   UNL     1     -20.553  -4.164   1.913  0.00  0.00    +0.000 HD
ENDROOT
BRANCH   1  13
ATOM     12  O   UNL     1     -21.472  -2.668   7.758  0.00  0.00    +0.000 OA
ATOM     13  C   UNL     1     -20.907  -2.097   6.812  0.00  0.00    +0.000 C 
BRANCH  13  14
ATOM     14  C   UNL     1     -20.288  -0.736   7.085  0.00  0.00    +0.000 C 
ATOM     15  H   UNL     1     -20.597  -0.366   8.066  0.00  0.00    +0.000 HD
ATOM     16  H   UNL     1     -20.643  -0.023   6.333  0.00  0.00    +0.000 HD
ATOM     17  H   UNL     1     -19.199  -0.789   7.005  0.00  0.00    +0.000 HD
ENDBRANCH  13  14
ENDBRANCH   1  13
TORSDOF 2
ENDMDL
