MODEL 1
REMARK VINA RESULT:    -5.966      0.000      0.000
REMARK INTER + INTRA:          -9.047
REMARK INTER:                  -8.248
REMARK INTRA:                  -0.799
REMARK UNBOUND:                -0.814
REMARK  Name = 5365976
REMARK  8 active torsions:
REMARK  status: ('A' for Active; 'I' for Inactive)
REMARK    1  A    between atoms: C_2  and  C_7
REMARK    2  A    between atoms: C_2  and  C_8
REMARK    3  A    between atoms: C_3  and  C_10
REMARK    4  A    between atoms: C_6  and  C_11
REMARK    5  A    between atoms: C_12  and  C_13
REMARK    6  A    between atoms: C_13  and  C_14
REMARK    7  A    between atoms: C_14  and  C_15
REMARK    8  A    between atoms: C_15  and  C_16
REMARK                            x       y       z     vdW  Elec       q    Type
REMARK                         _______ _______ _______ _____ _____    ______ ____
ROOT
ATOM      1  C   UNL     1       4.592   8.287   3.070  0.00  0.00    +0.000 C 
ATOM      2  C   UNL     1       6.010   8.794   2.626  0.00  0.00    +0.000 C 
ATOM      3  C   UNL     1       4.714   6.851   3.632  0.00  0.00    +0.000 C 
ATOM      4  C   UNL     1       5.709   6.742   4.791  0.00  0.00    +0.000 C 
ATOM      5  C   UNL     1       7.073   8.545   3.688  0.00  0.00    +0.000 C 
ATOM      6  C   UNL     1       6.919   7.615   4.648  0.00  0.00    +0.000 C 
ATOM      7  H   UNL     1       5.925   9.884   2.503  0.00  0.00    +0.000 HD
ATOM      8  H   UNL     1       5.029   6.168   2.834  0.00  0.00    +0.000 HD
ATOM      9  H   UNL     1       3.735   6.485   3.967  0.00  0.00    +0.000 HD
ATOM     10  H   UNL     1       6.025   5.698   4.891  0.00  0.00    +0.000 HD
ATOM     11  H   UNL     1       5.207   7.007   5.730  0.00  0.00    +0.000 HD
ATOM     12  H   UNL     1       7.697   7.479   5.395  0.00  0.00    +0.000 HD
ENDROOT
BRANCH   1  13
ATOM     13  C   UNL     1       4.014   9.234   4.151  0.00  0.00    +0.000 C 
ATOM     14  H   UNL     1       3.300   9.941   3.711  0.00  0.00    +0.000 HD
ATOM     15  H   UNL     1       3.492   8.698   4.950  0.00  0.00    +0.000 HD
ATOM     16  H   UNL     1       4.810   9.821   4.622  0.00  0.00    +0.000 HD
ENDBRANCH   1  13
BRANCH   1  17
ATOM     17  C   UNL     1       3.587   8.286   1.898  0.00  0.00    +0.000 C 
ATOM     18  H   UNL     1       3.764   7.432   1.233  0.00  0.00    +0.000 HD
ATOM     19  H   UNL     1       2.556   8.215   2.262  0.00  0.00    +0.000 HD
ATOM     20  H   UNL     1       3.670   9.189   1.284  0.00  0.00    +0.000 HD
ENDBRANCH   1  17
BRANCH   2  21
ATOM     21  C   UNL     1       6.466   8.201   1.317  0.00  0.00    +0.000 C 
ATOM     22  C   UNL     1       6.807   8.939   0.255  0.00  0.00    +0.000 C 
ATOM     23  H   UNL     1       6.518   7.116   1.261  0.00  0.00    +0.000 HD
ATOM     24  H   UNL     1       6.769  10.023   0.279  0.00  0.00    +0.000 HD
BRANCH  22  26
ATOM     25  O   UNL     1       7.151   7.083  -1.193  0.00  0.00    +0.000 OA
ATOM     26  C   UNL     1       7.251   8.294  -1.015  0.00  0.00    +0.000 C 
BRANCH  26  27
ATOM     27  C   UNL     1       7.834   9.235  -2.056  0.00  0.00    +0.000 C 
ATOM     28  H   UNL     1       8.569   8.674  -2.646  0.00  0.00    +0.000 HD
ATOM     29  H   UNL     1       7.022   9.552  -2.722  0.00  0.00    +0.000 HD
BRANCH  27  30
ATOM     30  C   UNL     1       8.498  10.459  -1.427  0.00  0.00    +0.000 C 
ATOM     31  H   UNL     1       7.912  10.798  -0.563  0.00  0.00    +0.000 HD
ATOM     32  H   UNL     1       8.502  11.288  -2.146  0.00  0.00    +0.000 HD
BRANCH  30  33
ATOM     33  C   UNL     1       9.915  10.167  -1.029  0.00  0.00    +0.000 C 
ATOM     34  C   UNL     1      10.363  10.214   0.231  0.00  0.00    +0.000 C 
ATOM     35  H   UNL     1      10.615   9.919  -1.821  0.00  0.00    +0.000 HD
ATOM     36  H   UNL     1      11.402  10.000   0.451  0.00  0.00    +0.000 HD
ATOM     37  H   UNL     1       9.707  10.465   1.058  0.00  0.00    +0.000 HD
ENDBRANCH  30  33
ENDBRANCH  27  30
ENDBRANCH  26  27
ENDBRANCH  22  26
ENDBRANCH   2  21
BRANCH   5  38
ATOM     38  C   UNL     1       8.307   9.402   3.625  0.00  0.00    +0.000 C 
ATOM     39  H   UNL     1       9.146   8.913   4.129  0.00  0.00    +0.000 HD
ATOM     40  H   UNL     1       8.157  10.376   4.103  0.00  0.00    +0.000 HD
ATOM     41  H   UNL     1       8.587   9.585   2.582  0.00  0.00    +0.000 HD
ENDBRANCH   5  38
TORSDOF 8
ENDMDL
MODEL 2
REMARK VINA RESULT:    -5.611     15.724     17.627
REMARK INTER + INTRA:          -8.557
REMARK INTER:                  -8.150
REMARK INTRA:                  -0.407
REMARK UNBOUND:                -0.814
REMARK  Name = 5365976
REMARK  8 active torsions:
REMARK  status: ('A' for Active; 'I' for Inactive)
REMARK    1  A    between atoms: C_2  and  C_7
REMARK    2  A    between atoms: C_2  and  C_8
REMARK    3  A    between atoms: C_3  and  C_10
REMARK    4  A    between atoms: C_6  and  C_11
REMARK    5  A    between atoms: C_12  and  C_13
REMARK    6  A    between atoms: C_13  and  C_14
REMARK    7  A    between atoms: C_14  and  C_15
REMARK    8  A    between atoms: C_15  and  C_16
REMARK                            x       y       z     vdW  Elec       q    Type
REMARK                         _______ _______ _______ _____ _____    ______ ____
ROOT
ATOM      1  C   UNL     1     -10.239   7.500  -6.461  0.00  0.00    +0.000 C 
ATOM      2  C   UNL     1      -8.864   6.878  -6.025  0.00  0.00    +0.000 C 
ATOM      3  C   UNL     1     -11.114   6.403  -7.113  0.00  0.00    +0.000 C 
ATOM      4  C   UNL     1     -11.338   5.193  -6.202  0.00  0.00    +0.000 C 
ATOM      5  C   UNL     1      -9.036   5.572  -5.261  0.00  0.00    +0.000 C 
ATOM      6  C   UNL     1     -10.153   4.829  -5.359  0.00  0.00    +0.000 C 
ATOM      7  H   UNL     1      -8.403   7.599  -5.335  0.00  0.00    +0.000 HD
ATOM      8  H   UNL     1     -10.643   6.060  -8.043  0.00  0.00    +0.000 HD
ATOM      9  H   UNL     1     -12.089   6.814  -7.407  0.00  0.00    +0.000 HD
ATOM     10  H   UNL     1     -11.623   4.332  -6.817  0.00  0.00    +0.000 HD
ATOM     11  H   UNL     1     -12.184   5.392  -5.532  0.00  0.00    +0.000 HD
ATOM     12  H   UNL     1     -10.239   3.909  -4.786  0.00  0.00    +0.000 HD
ENDROOT
BRANCH   1  13
ATOM     13  C   UNL     1     -10.961   8.091  -5.224  0.00  0.00    +0.000 C 
ATOM     14  H   UNL     1     -11.136   9.166  -5.349  0.00  0.00    +0.000 HD
ATOM     15  H   UNL     1     -11.931   7.621  -5.034  0.00  0.00    +0.000 HD
ATOM     16  H   UNL     1     -10.356   7.959  -4.320  0.00  0.00    +0.000 HD
ENDBRANCH   1  13
BRANCH   1  17
ATOM     17  C   UNL     1     -10.055   8.660  -7.464  0.00  0.00    +0.000 C 
ATOM     18  H   UNL     1     -10.049   8.288  -8.495  0.00  0.00    +0.000 HD
ATOM     19  H   UNL     1     -10.869   9.388  -7.378  0.00  0.00    +0.000 HD
ATOM     20  H   UNL     1      -9.108   9.189  -7.311  0.00  0.00    +0.000 HD
ENDBRANCH   1  17
BRANCH   2  21
ATOM     21  C   UNL     1      -7.923   6.658  -7.182  0.00  0.00    +0.000 C 
ATOM     22  C   UNL     1      -7.878   5.523  -7.888  0.00  0.00    +0.000 C 
ATOM     23  H   UNL     1      -7.260   7.482  -7.440  0.00  0.00    +0.000 HD
ATOM     24  H   UNL     1      -8.526   4.684  -7.658  0.00  0.00    +0.000 HD
BRANCH  22  26
ATOM     25  O   UNL     1      -7.260   4.840 -10.082  0.00  0.00    +0.000 OA
ATOM     26  C   UNL     1      -6.923   5.364  -9.023  0.00  0.00    +0.000 C 
BRANCH  26  27
ATOM     27  C   UNL     1      -5.520   5.889  -8.774  0.00  0.00    +0.000 C 
ATOM     28  H   UNL     1      -5.567   6.599  -7.938  0.00  0.00    +0.000 HD
ATOM     29  H   UNL     1      -4.887   5.044  -8.478  0.00  0.00    +0.000 HD
BRANCH  27  30
ATOM     30  C   UNL     1      -4.928   6.576 -10.004  0.00  0.00    +0.000 C 
ATOM     31  H   UNL     1      -5.495   7.488 -10.230  0.00  0.00    +0.000 HD
ATOM     32  H   UNL     1      -5.031   5.921 -10.878  0.00  0.00    +0.000 HD
BRANCH  30  33
ATOM     33  C   UNL     1      -3.474   6.887  -9.809  0.00  0.00    +0.000 C 
ATOM     34  C   UNL     1      -2.550   6.777 -10.771  0.00  0.00    +0.000 C 
ATOM     35  H   UNL     1      -3.159   7.204  -8.820  0.00  0.00    +0.000 HD
ATOM     36  H   UNL     1      -1.512   7.010 -10.563  0.00  0.00    +0.000 HD
ATOM     37  H   UNL     1      -2.810   6.457 -11.774  0.00  0.00    +0.000 HD
ENDBRANCH  30  33
ENDBRANCH  27  30
ENDBRANCH  26  27
ENDBRANCH  22  26
ENDBRANCH   2  21
BRANCH   5  38
ATOM     38  C   UNL     1      -7.897   5.153  -4.373  0.00  0.00    +0.000 C 
ATOM     39  H   UNL     1      -6.936   5.417  -4.825  0.00  0.00    +0.000 HD
ATOM     40  H   UNL     1      -7.891   4.074  -4.191  0.00  0.00    +0.000 HD
ATOM     41  H   UNL     1      -7.972   5.652  -3.401  0.00  0.00    +0.000 HD
ENDBRANCH   5  38
TORSDOF 8
ENDMDL
MODEL 3
REMARK VINA RESULT:    -5.413     14.867     16.958
REMARK INTER + INTRA:          -8.284
REMARK INTER:                  -7.709
REMARK INTRA:                  -0.575
REMARK UNBOUND:                -0.814
REMARK  Name = 5365976
REMARK  8 active torsions:
REMARK  status: ('A' for Active; 'I' for Inactive)
REMARK    1  A    between atoms: C_2  and  C_7
REMARK    2  A    between atoms: C_2  and  C_8
REMARK    3  A    between atoms: C_3  and  C_10
REMARK    4  A    between atoms: C_6  and  C_11
REMARK    5  A    between atoms: C_12  and  C_13
REMARK    6  A    between atoms: C_13  and  C_14
REMARK    7  A    between atoms: C_14  and  C_15
REMARK    8  A    between atoms: C_15  and  C_16
REMARK                            x       y       z     vdW  Elec       q    Type
REMARK                         _______ _______ _______ _____ _____    ______ ____
ROOT
ATOM      1  C   UNL     1      -9.784  10.439  10.737  0.00  0.00    +0.000 C 
ATOM      2  C   UNL     1      -8.647  11.252  10.022  0.00  0.00    +0.000 C 
ATOM      3  C   UNL     1      -9.727   8.963  10.275  0.00  0.00    +0.000 C 
ATOM      4  C   UNL     1      -8.364   8.309  10.522  0.00  0.00    +0.000 C 
ATOM      5  C   UNL     1      -7.299  10.547  10.093  0.00  0.00    +0.000 C 
ATOM      6  C   UNL     1      -7.195   9.225  10.314  0.00  0.00    +0.000 C 
ATOM      7  H   UNL     1      -8.548  12.198  10.576  0.00  0.00    +0.000 HD
ATOM      8  H   UNL     1      -9.956   8.903   9.204  0.00  0.00    +0.000 HD
ATOM      9  H   UNL     1     -10.503   8.373  10.779  0.00  0.00    +0.000 HD
ATOM     10  H   UNL     1      -8.264   7.438   9.865  0.00  0.00    +0.000 HD
ATOM     11  H   UNL     1      -8.322   7.931  11.551  0.00  0.00    +0.000 HD
ATOM     12  H   UNL     1      -6.213   8.764  10.370  0.00  0.00    +0.000 HD
ENDROOT
BRANCH   1  13
ATOM     13  C   UNL     1      -9.601  10.523  12.273  0.00  0.00    +0.000 C 
ATOM     14  H   UNL     1     -10.570  10.603  12.779  0.00  0.00    +0.000 HD
ATOM     15  H   UNL     1      -9.087   9.650  12.688  0.00  0.00    +0.000 HD
ATOM     16  H   UNL     1      -9.012  11.406  12.548  0.00  0.00    +0.000 HD
ENDBRANCH   1  13
BRANCH   1  17
ATOM     17  C   UNL     1     -11.185  11.010  10.425  0.00  0.00    +0.000 C 
ATOM     18  H   UNL     1     -11.928  10.635  11.139  0.00  0.00    +0.000 HD
ATOM     19  H   UNL     1     -11.188  12.104  10.487  0.00  0.00    +0.000 HD
ATOM     20  H   UNL     1     -11.532  10.725   9.427  0.00  0.00    +0.000 HD
ENDBRANCH   1  17
BRANCH   2  21
ATOM     21  C   UNL     1      -8.966  11.574   8.585  0.00  0.00    +0.000 C 
ATOM     22  C   UNL     1      -8.768  10.715   7.578  0.00  0.00    +0.000 C 
ATOM     23  H   UNL     1      -9.382  12.559   8.381  0.00  0.00    +0.000 HD
ATOM     24  H   UNL     1      -8.357   9.725   7.747  0.00  0.00    +0.000 HD
BRANCH  22  26
ATOM     25  O   UNL     1     -10.251  11.366   5.835  0.00  0.00    +0.000 OA
ATOM     26  C   UNL     1      -9.103  11.091   6.174  0.00  0.00    +0.000 C 
BRANCH  26  27
ATOM     27  C   UNL     1      -7.933  11.104   5.205  0.00  0.00    +0.000 C 
ATOM     28  H   UNL     1      -7.006  11.101   5.793  0.00  0.00    +0.000 HD
ATOM     29  H   UNL     1      -7.971  10.183   4.611  0.00  0.00    +0.000 HD
BRANCH  27  30
ATOM     30  C   UNL     1      -7.957  12.320   4.280  0.00  0.00    +0.000 C 
ATOM     31  H   UNL     1      -8.986  12.519   3.953  0.00  0.00    +0.000 HD
ATOM     32  H   UNL     1      -7.378  12.107   3.373  0.00  0.00    +0.000 HD
BRANCH  30  33
ATOM     33  C   UNL     1      -7.367  13.527   4.949  0.00  0.00    +0.000 C 
ATOM     34  C   UNL     1      -6.092  13.614   5.345  0.00  0.00    +0.000 C 
ATOM     35  H   UNL     1      -8.027  14.369   5.132  0.00  0.00    +0.000 HD
ATOM     36  H   UNL     1      -5.729  14.512   5.831  0.00  0.00    +0.000 HD
ATOM     37  H   UNL     1      -5.393  12.799   5.193  0.00  0.00    +0.000 HD
ENDBRANCH  30  33
ENDBRANCH  27  30
ENDBRANCH  26  27
ENDBRANCH  22  26
ENDBRANCH   2  21
BRANCH   5  38
ATOM     38  C   UNL     1      -6.077  11.406   9.920  0.00  0.00    +0.000 C 
ATOM     39  H   UNL     1      -5.759  11.828  10.878  0.00  0.00    +0.000 HD
ATOM     40  H   UNL     1      -6.255  12.242   9.234  0.00  0.00    +0.000 HD
ATOM     41  H   UNL     1      -5.253  10.813   9.510  0.00  0.00    +0.000 HD
ENDBRANCH   5  38
TORSDOF 8
ENDMDL
MODEL 4
REMARK VINA RESULT:    -5.353     14.889     17.277
REMARK INTER + INTRA:          -8.201
REMARK INTER:                  -7.761
REMARK INTRA:                  -0.440
REMARK UNBOUND:                -0.814
REMARK  Name = 5365976
REMARK  8 active torsions:
REMARK  status: ('A' for Active; 'I' for Inactive)
REMARK    1  A    between atoms: C_2  and  C_7
REMARK    2  A    between atoms: C_2  and  C_8
REMARK    3  A    between atoms: C_3  and  C_10
REMARK    4  A    between atoms: C_6  and  C_11
REMARK    5  A    between atoms: C_12  and  C_13
REMARK    6  A    between atoms: C_13  and  C_14
REMARK    7  A    between atoms: C_14  and  C_15
REMARK    8  A    between atoms: C_15  and  C_16
REMARK                            x       y       z     vdW  Elec       q    Type
REMARK                         _______ _______ _______ _____ _____    ______ ____
ROOT
ATOM      1  C   UNL     1      -7.505  13.749   5.847  0.00  0.00    +0.000 C 
ATOM      2  C   UNL     1      -8.412  12.979   6.873  0.00  0.00    +0.000 C 
ATOM      3  C   UNL     1      -6.556  12.746   5.149  0.00  0.00    +0.000 C 
ATOM      4  C   UNL     1      -7.298  11.601   4.454  0.00  0.00    +0.000 C 
ATOM      5  C   UNL     1      -9.035  11.728   6.268  0.00  0.00    +0.000 C 
ATOM      6  C   UNL     1      -8.516  11.123   5.185  0.00  0.00    +0.000 C 
ATOM      7  H   UNL     1      -9.236  13.660   7.129  0.00  0.00    +0.000 HD
ATOM      8  H   UNL     1      -5.863  12.319   5.886  0.00  0.00    +0.000 HD
ATOM      9  H   UNL     1      -5.926  13.262   4.413  0.00  0.00    +0.000 HD
ATOM     10  H   UNL     1      -6.606  10.763   4.313  0.00  0.00    +0.000 HD
ATOM     11  H   UNL     1      -7.606  11.922   3.451  0.00  0.00    +0.000 HD
ATOM     12  H   UNL     1      -9.000  10.239   4.778  0.00  0.00    +0.000 HD
ENDROOT
BRANCH   1  13
ATOM     13  C   UNL     1      -8.392  14.461   4.796  0.00  0.00    +0.000 C 
ATOM     14  H   UNL     1      -9.231  14.978   5.278  0.00  0.00    +0.000 HD
ATOM     15  H   UNL     1      -7.843  15.205   4.211  0.00  0.00    +0.000 HD
ATOM     16  H   UNL     1      -8.813  13.739   4.088  0.00  0.00    +0.000 HD
ENDBRANCH   1  13
BRANCH   1  17
ATOM     17  C   UNL     1      -6.662  14.846   6.534  0.00  0.00    +0.000 C 
ATOM     18  H   UNL     1      -7.249  15.370   7.297  0.00  0.00    +0.000 HD
ATOM     19  H   UNL     1      -5.783  14.417   7.028  0.00  0.00    +0.000 HD
ATOM     20  H   UNL     1      -6.316  15.604   5.823  0.00  0.00    +0.000 HD
ENDBRANCH   1  17
BRANCH   2  21
ATOM     21  C   UNL     1      -7.687  12.610   8.142  0.00  0.00    +0.000 C 
ATOM     22  C   UNL     1      -7.575  11.353   8.586  0.00  0.00    +0.000 C 
ATOM     23  H   UNL     1      -7.236  13.425   8.705  0.00  0.00    +0.000 HD
ATOM     24  H   UNL     1      -8.011  10.519   8.047  0.00  0.00    +0.000 HD
BRANCH  22  26
ATOM     25  O   UNL     1      -6.123  11.882  10.395  0.00  0.00    +0.000 OA
ATOM     26  C   UNL     1      -6.844  11.050   9.850  0.00  0.00    +0.000 C 
BRANCH  26  27
ATOM     27  C   UNL     1      -7.053   9.652  10.406  0.00  0.00    +0.000 C 
ATOM     28  H   UNL     1      -6.176   9.048  10.142  0.00  0.00    +0.000 HD
ATOM     29  H   UNL     1      -7.111   9.723  11.499  0.00  0.00    +0.000 HD
BRANCH  27  30
ATOM     30  C   UNL     1      -8.319   8.992   9.860  0.00  0.00    +0.000 C 
ATOM     31  H   UNL     1      -8.086   7.982   9.498  0.00  0.00    +0.000 HD
ATOM     32  H   UNL     1      -8.686   9.556   8.994  0.00  0.00    +0.000 HD
BRANCH  30  33
ATOM     33  C   UNL     1      -9.403   8.950  10.896  0.00  0.00    +0.000 C 
ATOM     34  C   UNL     1      -9.796   7.835  11.523  0.00  0.00    +0.000 C 
ATOM     35  H   UNL     1      -9.903   9.885  11.135  0.00  0.00    +0.000 HD
ATOM     36  H   UNL     1     -10.593   7.871  12.257  0.00  0.00    +0.000 HD
ATOM     37  H   UNL     1      -9.336   6.875  11.316  0.00  0.00    +0.000 HD
ENDBRANCH  30  33
ENDBRANCH  27  30
ENDBRANCH  26  27
ENDBRANCH  22  26
ENDBRANCH   2  21
BRANCH   5  38
ATOM     38  C   UNL     1     -10.278  11.203   6.933  0.00  0.00    +0.000 C 
ATOM     39  H   UNL     1     -10.054  10.307   7.520  0.00  0.00    +0.000 HD
ATOM     40  H   UNL     1     -11.052  10.936   6.206  0.00  0.00    +0.000 HD
ATOM     41  H   UNL     1     -10.698  11.961   7.601  0.00  0.00    +0.000 HD
ENDBRANCH   5  38
TORSDOF 8
ENDMDL
MODEL 5
REMARK VINA RESULT:    -5.227     15.356     17.854
REMARK INTER + INTRA:          -8.026
REMARK INTER:                  -7.176
REMARK INTRA:                  -0.850
REMARK UNBOUND:                -0.814
REMARK  Name = 5365976
REMARK  8 active torsions:
REMARK  status: ('A' for Active; 'I' for Inactive)
REMARK    1  A    between atoms: C_2  and  C_7
REMARK    2  A    between atoms: C_2  and  C_8
REMARK    3  A    between atoms: C_3  and  C_10
REMARK    4  A    between atoms: C_6  and  C_11
REMARK    5  A    between atoms: C_12  and  C_13
REMARK    6  A    between atoms: C_13  and  C_14
REMARK    7  A    between atoms: C_14  and  C_15
REMARK    8  A    between atoms: C_15  and  C_16
REMARK                            x       y       z     vdW  Elec       q    Type
REMARK                         _______ _______ _______ _____ _____    ______ ____
ROOT
ATOM      1  C   UNL     1      -2.484   7.954 -12.132  0.00  0.00    +0.000 C 
ATOM      2  C   UNL     1      -3.478   7.149 -11.221  0.00  0.00    +0.000 C 
ATOM      3  C   UNL     1      -2.519   9.449 -11.732  0.00  0.00    +0.000 C 
ATOM      4  C   UNL     1      -2.198   9.683 -10.253  0.00  0.00    +0.000 C 
ATOM      5  C   UNL     1      -3.310   7.485  -9.744  0.00  0.00    +0.000 C 
ATOM      6  C   UNL     1      -2.737   8.630  -9.332  0.00  0.00    +0.000 C 
ATOM      7  H   UNL     1      -3.219   6.087 -11.343  0.00  0.00    +0.000 HD
ATOM      8  H   UNL     1      -3.511   9.865 -11.946  0.00  0.00    +0.000 HD
ATOM      9  H   UNL     1      -1.815  10.027 -12.346  0.00  0.00    +0.000 HD
ATOM     10  H   UNL     1      -2.591  10.661  -9.955  0.00  0.00    +0.000 HD
ATOM     11  H   UNL     1      -1.111   9.729 -10.118  0.00  0.00    +0.000 HD
ATOM     12  H   UNL     1      -2.626   8.823  -8.269  0.00  0.00    +0.000 HD
ENDROOT
BRANCH   1  13
ATOM     13  C   UNL     1      -1.050   7.393 -11.965  0.00  0.00    +0.000 C 
ATOM     14  H   UNL     1      -0.992   6.717 -11.104  0.00  0.00    +0.000 HD
ATOM     15  H   UNL     1      -0.708   6.835 -12.843  0.00  0.00    +0.000 HD
ATOM     16  H   UNL     1      -0.331   8.202 -11.797  0.00  0.00    +0.000 HD
ENDBRANCH   1  13
BRANCH   1  17
ATOM     17  C   UNL     1      -2.841   7.825 -13.629  0.00  0.00    +0.000 C 
ATOM     18  H   UNL     1      -3.817   7.343 -13.758  0.00  0.00    +0.000 HD
ATOM     19  H   UNL     1      -2.890   8.809 -14.109  0.00  0.00    +0.000 HD
ATOM     20  H   UNL     1      -2.112   7.216 -14.174  0.00  0.00    +0.000 HD
ENDBRANCH   1  17
BRANCH   2  21
ATOM     21  C   UNL     1      -4.921   7.335 -11.612  0.00  0.00    +0.000 C 
ATOM     22  C   UNL     1      -5.767   6.317 -11.810  0.00  0.00    +0.000 C 
ATOM     23  H   UNL     1      -5.271   8.359 -11.729  0.00  0.00    +0.000 HD
ATOM     24  H   UNL     1      -5.450   5.286 -11.700  0.00  0.00    +0.000 HD
BRANCH  22  26
ATOM     25  O   UNL     1      -7.497   6.885 -13.342  0.00  0.00    +0.000 OA
ATOM     26  C   UNL     1      -7.186   6.565 -12.197  0.00  0.00    +0.000 C 
BRANCH  26  27
ATOM     27  C   UNL     1      -8.204   6.399 -11.082  0.00  0.00    +0.000 C 
ATOM     28  H   UNL     1      -8.553   7.398 -10.790  0.00  0.00    +0.000 HD
ATOM     29  H   UNL     1      -9.057   5.835 -11.480  0.00  0.00    +0.000 HD
BRANCH  27  30
ATOM     30  C   UNL     1      -7.625   5.676  -9.867  0.00  0.00    +0.000 C 
ATOM     31  H   UNL     1      -6.528   5.686  -9.917  0.00  0.00    +0.000 HD
ATOM     32  H   UNL     1      -7.928   4.622  -9.884  0.00  0.00    +0.000 HD
BRANCH  30  33
ATOM     33  C   UNL     1      -8.106   6.290  -8.586  0.00  0.00    +0.000 C 
ATOM     34  C   UNL     1      -7.565   6.040  -7.387  0.00  0.00    +0.000 C 
ATOM     35  H   UNL     1      -8.955   6.964  -8.643  0.00  0.00    +0.000 HD
ATOM     36  H   UNL     1      -7.966   6.511  -6.497  0.00  0.00    +0.000 HD
ATOM     37  H   UNL     1      -6.721   5.369  -7.274  0.00  0.00    +0.000 HD
ENDBRANCH  30  33
ENDBRANCH  27  30
ENDBRANCH  26  27
ENDBRANCH  22  26
ENDBRANCH   2  21
BRANCH   5  38
ATOM     38  C   UNL     1      -3.804   6.462  -8.758  0.00  0.00    +0.000 C 
ATOM     39  H   UNL     1      -3.005   5.767  -8.487  0.00  0.00    +0.000 HD
ATOM     40  H   UNL     1      -4.634   5.871  -9.159  0.00  0.00    +0.000 HD
ATOM     41  H   UNL     1      -4.160   6.956  -7.848  0.00  0.00    +0.000 HD
ENDBRANCH   5  38
TORSDOF 8
ENDMDL
MODEL 6
REMARK VINA RESULT:    -5.137      1.673      2.093
REMARK INTER + INTRA:          -7.903
REMARK INTER:                  -7.513
REMARK INTRA:                  -0.390
REMARK UNBOUND:                -0.814
REMARK  Name = 5365976
REMARK  8 active torsions:
REMARK  status: ('A' for Active; 'I' for Inactive)
REMARK    1  A    between atoms: C_2  and  C_7
REMARK    2  A    between atoms: C_2  and  C_8
REMARK    3  A    between atoms: C_3  and  C_10
REMARK    4  A    between atoms: C_6  and  C_11
REMARK    5  A    between atoms: C_12  and  C_13
REMARK    6  A    between atoms: C_13  and  C_14
REMARK    7  A    between atoms: C_14  and  C_15
REMARK    8  A    between atoms: C_15  and  C_16
REMARK                            x       y       z     vdW  Elec       q    Type
REMARK                         _______ _______ _______ _____ _____    ______ ____
ROOT
ATOM      1  C   UNL     1       4.986   8.552   2.888  0.00  0.00    +0.000 C 
ATOM      2  C   UNL     1       6.438   9.087   3.155  0.00  0.00    +0.000 C 
ATOM      3  C   UNL     1       4.984   7.008   2.976  0.00  0.00    +0.000 C 
ATOM      4  C   UNL     1       5.510   6.482   4.315  0.00  0.00    +0.000 C 
ATOM      5  C   UNL     1       7.070   8.454   4.389  0.00  0.00    +0.000 C 
ATOM      6  C   UNL     1       6.640   7.282   4.889  0.00  0.00    +0.000 C 
ATOM      7  H   UNL     1       6.340  10.163   3.358  0.00  0.00    +0.000 HD
ATOM      8  H   UNL     1       5.600   6.591   2.169  0.00  0.00    +0.000 HD
ATOM      9  H   UNL     1       3.972   6.615   2.811  0.00  0.00    +0.000 HD
ATOM     10  H   UNL     1       5.830   5.442   4.187  0.00  0.00    +0.000 HD
ATOM     11  H   UNL     1       4.694   6.469   5.048  0.00  0.00    +0.000 HD
ATOM     12  H   UNL     1       7.111   6.872   5.779  0.00  0.00    +0.000 HD
ENDROOT
BRANCH   1  13
ATOM     13  C   UNL     1       4.010   9.146   3.934  0.00  0.00    +0.000 C 
ATOM     14  H   UNL     1       3.458   9.996   3.515  0.00  0.00    +0.000 HD
ATOM     15  H   UNL     1       3.272   8.419   4.286  0.00  0.00    +0.000 HD
ATOM     16  H   UNL     1       4.553   9.508   4.814  0.00  0.00    +0.000 HD
ENDBRANCH   1  13
BRANCH   1  17
ATOM     17  C   UNL     1       4.462   8.978   1.499  0.00  0.00    +0.000 C 
ATOM     18  H   UNL     1       4.911   8.367   0.708  0.00  0.00    +0.000 HD
ATOM     19  H   UNL     1       3.375   8.859   1.434  0.00  0.00    +0.000 HD
ATOM     20  H   UNL     1       4.704  10.021   1.270  0.00  0.00    +0.000 HD
ENDBRANCH   1  17
BRANCH   2  21
ATOM     21  C   UNL     1       7.360   8.907   1.977  0.00  0.00    +0.000 C 
ATOM     22  C   UNL     1       8.063   9.907   1.433  0.00  0.00    +0.000 C 
ATOM     23  H   UNL     1       7.446   7.902   1.568  0.00  0.00    +0.000 HD
ATOM     24  H   UNL     1       8.002  10.920   1.818  0.00  0.00    +0.000 HD
BRANCH  22  26
ATOM     25  O   UNL     1      10.136  10.025   0.270  0.00  0.00    +0.000 OA
ATOM     26  C   UNL     1       8.960   9.667   0.266  0.00  0.00    +0.000 C 
BRANCH  26  27
ATOM     27  C   UNL     1       8.319   8.959  -0.915  0.00  0.00    +0.000 C 
ATOM     28  H   UNL     1       8.932   9.158  -1.802  0.00  0.00    +0.000 HD
ATOM     29  H   UNL     1       8.333   7.881  -0.715  0.00  0.00    +0.000 HD
BRANCH  27  30
ATOM     30  C   UNL     1       6.884   9.423  -1.161  0.00  0.00    +0.000 C 
ATOM     31  H   UNL     1       6.246   9.125  -0.318  0.00  0.00    +0.000 HD
ATOM     32  H   UNL     1       6.480   8.921  -2.049  0.00  0.00    +0.000 HD
BRANCH  30  33
ATOM     33  C   UNL     1       6.819  10.905  -1.382  0.00  0.00    +0.000 C 
ATOM     34  C   UNL     1       6.113  11.745  -0.615  0.00  0.00    +0.000 C 
ATOM     35  H   UNL     1       7.369  11.310  -2.226  0.00  0.00    +0.000 HD
ATOM     36  H   UNL     1       6.101  12.807  -0.833  0.00  0.00    +0.000 HD
ATOM     37  H   UNL     1       5.540  11.393   0.235  0.00  0.00    +0.000 HD
ENDBRANCH  30  33
ENDBRANCH  27  30
ENDBRANCH  26  27
ENDBRANCH  22  26
ENDBRANCH   2  21
BRANCH   5  38
ATOM     38  C   UNL     1       8.195   9.212   5.037  0.00  0.00    +0.000 C 
ATOM     39  H   UNL     1       7.924  10.263   5.178  0.00  0.00    +0.000 HD
ATOM     40  H   UNL     1       9.110   9.186   4.435  0.00  0.00    +0.000 HD
ATOM     41  H   UNL     1       8.430   8.779   6.014  0.00  0.00    +0.000 HD
ENDBRANCH   5  38
TORSDOF 8
ENDMDL
MODEL 7
REMARK VINA RESULT:    -5.134     17.423     20.500
REMARK INTER + INTRA:          -7.898
REMARK INTER:                  -7.061
REMARK INTRA:                  -0.838
REMARK UNBOUND:                -0.814
REMARK  Name = 5365976
REMARK  8 active torsions:
REMARK  status: ('A' for Active; 'I' for Inactive)
REMARK    1  A    between atoms: C_2  and  C_7
REMARK    2  A    between atoms: C_2  and  C_8
REMARK    3  A    between atoms: C_3  and  C_10
REMARK    4  A    between atoms: C_6  and  C_11
REMARK    5  A    between atoms: C_12  and  C_13
REMARK    6  A    between atoms: C_13  and  C_14
REMARK    7  A    between atoms: C_14  and  C_15
REMARK    8  A    between atoms: C_15  and  C_16
REMARK                            x       y       z     vdW  Elec       q    Type
REMARK                         _______ _______ _______ _____ _____    ______ ____
ROOT
ATOM      1  C   UNL     1      -9.163   4.855  -5.473  0.00  0.00    +0.000 C 
ATOM      2  C   UNL     1     -10.372   5.838  -5.282  0.00  0.00    +0.000 C 
ATOM      3  C   UNL     1      -8.704   4.887  -6.950  0.00  0.00    +0.000 C 
ATOM      4  C   UNL     1      -8.333   6.291  -7.433  0.00  0.00    +0.000 C 
ATOM      5  C   UNL     1     -10.112   7.203  -5.906  0.00  0.00    +0.000 C 
ATOM      6  C   UNL     1      -9.195   7.383  -6.874  0.00  0.00    +0.000 C 
ATOM      7  H   UNL     1     -10.478   5.992  -4.199  0.00  0.00    +0.000 HD
ATOM      8  H   UNL     1      -9.501   4.494  -7.593  0.00  0.00    +0.000 HD
ATOM      9  H   UNL     1      -7.845   4.219  -7.100  0.00  0.00    +0.000 HD
ATOM     10  H   UNL     1      -8.382   6.315  -8.528  0.00  0.00    +0.000 HD
ATOM     11  H   UNL     1      -7.291   6.507  -7.163  0.00  0.00    +0.000 HD
ATOM     12  H   UNL     1      -9.032   8.377  -7.283  0.00  0.00    +0.000 HD
ENDROOT
BRANCH   1  13
ATOM     13  C   UNL     1      -7.996   5.274  -4.544  0.00  0.00    +0.000 C 
ATOM     14  H   UNL     1      -8.183   4.954  -3.512  0.00  0.00    +0.000 HD
ATOM     15  H   UNL     1      -7.036   4.848  -4.850  0.00  0.00    +0.000 HD
ATOM     16  H   UNL     1      -7.878   6.364  -4.534  0.00  0.00    +0.000 HD
ENDBRANCH   1  13
BRANCH   1  17
ATOM     17  C   UNL     1      -9.534   3.405  -5.092  0.00  0.00    +0.000 C 
ATOM     18  H   UNL     1     -10.622   3.270  -5.079  0.00  0.00    +0.000 HD
ATOM     19  H   UNL     1      -9.119   2.689  -5.811  0.00  0.00    +0.000 HD
ATOM     20  H   UNL     1      -9.169   3.135  -4.095  0.00  0.00    +0.000 HD
ENDBRANCH   1  17
BRANCH   2  21
ATOM     21  C   UNL     1     -11.671   5.288  -5.814  0.00  0.00    +0.000 C 
ATOM     22  C   UNL     1     -12.752   5.088  -5.052  0.00  0.00    +0.000 C 
ATOM     23  H   UNL     1     -11.707   5.054  -6.877  0.00  0.00    +0.000 HD
ATOM     24  H   UNL     1     -12.749   5.312  -3.991  0.00  0.00    +0.000 HD
BRANCH  22  26
ATOM     25  O   UNL     1     -14.841   5.265  -6.177  0.00  0.00    +0.000 OA
ATOM     26  C   UNL     1     -14.010   4.540  -5.636  0.00  0.00    +0.000 C 
BRANCH  26  27
ATOM     27  C   UNL     1     -14.186   3.036  -5.511  0.00  0.00    +0.000 C 
ATOM     28  H   UNL     1     -15.261   2.826  -5.435  0.00  0.00    +0.000 HD
ATOM     29  H   UNL     1     -13.804   2.570  -6.428  0.00  0.00    +0.000 HD
BRANCH  27  30
ATOM     30  C   UNL     1     -13.459   2.464  -4.295  0.00  0.00    +0.000 C 
ATOM     31  H   UNL     1     -14.189   2.147  -3.539  0.00  0.00    +0.000 HD
ATOM     32  H   UNL     1     -12.847   3.245  -3.828  0.00  0.00    +0.000 HD
BRANCH  30  33
ATOM     33  C   UNL     1     -12.563   1.324  -4.681  0.00  0.00    +0.000 C 
ATOM     34  C   UNL     1     -12.996   0.080  -4.916  0.00  0.00    +0.000 C 
ATOM     35  H   UNL     1     -11.499   1.528  -4.756  0.00  0.00    +0.000 HD
ATOM     36  H   UNL     1     -12.294  -0.703  -5.184  0.00  0.00    +0.000 HD
ATOM     37  H   UNL     1     -14.046  -0.179  -4.847  0.00  0.00    +0.000 HD
ENDBRANCH  30  33
ENDBRANCH  27  30
ENDBRANCH  26  27
ENDBRANCH  22  26
ENDBRANCH   2  21
BRANCH   5  38
ATOM     38  C   UNL     1     -10.922   8.354  -5.377  0.00  0.00    +0.000 C 
ATOM     39  H   UNL     1     -11.222   8.173  -4.341  0.00  0.00    +0.000 HD
ATOM     40  H   UNL     1     -11.833   8.519  -5.961  0.00  0.00    +0.000 HD
ATOM     41  H   UNL     1     -10.335   9.278  -5.413  0.00  0.00    +0.000 HD
ENDBRANCH   5  38
TORSDOF 8
ENDMDL
MODEL 8
REMARK VINA RESULT:    -5.131     14.966     16.982
REMARK INTER + INTRA:          -7.894
REMARK INTER:                  -7.229
REMARK INTRA:                  -0.664
REMARK UNBOUND:                -0.814
REMARK  Name = 5365976
REMARK  8 active torsions:
REMARK  status: ('A' for Active; 'I' for Inactive)
REMARK    1  A    between atoms: C_2  and  C_7
REMARK    2  A    between atoms: C_2  and  C_8
REMARK    3  A    between atoms: C_3  and  C_10
REMARK    4  A    between atoms: C_6  and  C_11
REMARK    5  A    between atoms: C_12  and  C_13
REMARK    6  A    between atoms: C_13  and  C_14
REMARK    7  A    between atoms: C_14  and  C_15
REMARK    8  A    between atoms: C_15  and  C_16
REMARK                            x       y       z     vdW  Elec       q    Type
REMARK                         _______ _______ _______ _____ _____    ______ ____
ROOT
ATOM      1  C   UNL     1      -8.756  14.432   6.493  0.00  0.00    +0.000 C 
ATOM      2  C   UNL     1      -8.571  12.883   6.311  0.00  0.00    +0.000 C 
ATOM      3  C   UNL     1      -7.372  15.092   6.703  0.00  0.00    +0.000 C 
ATOM      4  C   UNL     1      -6.389  14.801   5.565  0.00  0.00    +0.000 C 
ATOM      5  C   UNL     1      -7.474  12.546   5.309  0.00  0.00    +0.000 C 
ATOM      6  C   UNL     1      -6.502  13.420   4.993  0.00  0.00    +0.000 C 
ATOM      7  H   UNL     1      -9.516  12.505   5.895  0.00  0.00    +0.000 HD
ATOM      8  H   UNL     1      -6.933  14.739   7.645  0.00  0.00    +0.000 HD
ATOM      9  H   UNL     1      -7.478  16.179   6.813  0.00  0.00    +0.000 HD
ATOM     10  H   UNL     1      -5.368  14.961   5.928  0.00  0.00    +0.000 HD
ATOM     11  H   UNL     1      -6.548  15.520   4.753  0.00  0.00    +0.000 HD
ATOM     12  H   UNL     1      -5.745  13.142   4.263  0.00  0.00    +0.000 HD
ENDROOT
BRANCH   1  13
ATOM     13  C   UNL     1      -9.445  15.028   5.241  0.00  0.00    +0.000 C 
ATOM     14  H   UNL     1      -9.026  16.010   4.994  0.00  0.00    +0.000 HD
ATOM     15  H   UNL     1      -9.337  14.394   4.355  0.00  0.00    +0.000 HD
ATOM     16  H   UNL     1     -10.519  15.162   5.413  0.00  0.00    +0.000 HD
ENDBRANCH   1  13
BRANCH   1  17
ATOM     17  C   UNL     1      -9.660  14.766   7.700  0.00  0.00    +0.000 C 
ATOM     18  H   UNL     1      -9.474  15.785   8.058  0.00  0.00    +0.000 HD
ATOM     19  H   UNL     1     -10.720  14.697   7.429  0.00  0.00    +0.000 HD
ATOM     20  H   UNL     1      -9.481  14.094   8.546  0.00  0.00    +0.000 HD
ENDBRANCH   1  17
BRANCH   2  21
ATOM     21  C   UNL     1      -8.299  12.164   7.607  0.00  0.00    +0.000 C 
ATOM     22  C   UNL     1      -7.145  12.263   8.276  0.00  0.00    +0.000 C 
ATOM     23  H   UNL     1      -9.101  11.542   8.001  0.00  0.00    +0.000 HD
ATOM     24  H   UNL     1      -6.328  12.876   7.911  0.00  0.00    +0.000 HD
BRANCH  22  26
ATOM     25  O   UNL     1      -5.868  11.576  10.163  0.00  0.00    +0.000 OA
ATOM     26  C   UNL     1      -6.935  11.526   9.555  0.00  0.00    +0.000 C 
BRANCH  26  27
ATOM     27  C   UNL     1      -8.124  10.715  10.043  0.00  0.00    +0.000 C 
ATOM     28  H   UNL     1      -8.494  11.179  10.966  0.00  0.00    +0.000 HD
ATOM     29  H   UNL     1      -8.912  10.774   9.283  0.00  0.00    +0.000 HD
BRANCH  27  30
ATOM     30  C   UNL     1      -7.763   9.254  10.306  0.00  0.00    +0.000 C 
ATOM     31  H   UNL     1      -8.460   8.824  11.037  0.00  0.00    +0.000 HD
ATOM     32  H   UNL     1      -6.764   9.194  10.755  0.00  0.00    +0.000 HD
BRANCH  30  33
ATOM     33  C   UNL     1      -7.762   8.455   9.036  0.00  0.00    +0.000 C 
ATOM     34  C   UNL     1      -8.576   8.694   8.002  0.00  0.00    +0.000 C 
ATOM     35  H   UNL     1      -7.064   7.625   8.968  0.00  0.00    +0.000 HD
ATOM     36  H   UNL     1      -8.531   8.073   7.114  0.00  0.00    +0.000 HD
ATOM     37  H   UNL     1      -9.296   9.504   8.021  0.00  0.00    +0.000 HD
ENDBRANCH  30  33
ENDBRANCH  27  30
ENDBRANCH  26  27
ENDBRANCH  22  26
ENDBRANCH   2  21
BRANCH   5  38
ATOM     38  C   UNL     1      -7.535  11.185   4.672  0.00  0.00    +0.000 C 
ATOM     39  H   UNL     1      -6.550  10.884   4.304  0.00  0.00    +0.000 HD
ATOM     40  H   UNL     1      -8.227  11.158   3.824  0.00  0.00    +0.000 HD
ATOM     41  H   UNL     1      -7.876  10.441   5.400  0.00  0.00    +0.000 HD
ENDBRANCH   5  38
TORSDOF 8
ENDMDL
MODEL 9
REMARK VINA RESULT:    -5.113     15.206     17.522
REMARK INTER + INTRA:          -7.870
REMARK INTER:                  -7.319
REMARK INTRA:                  -0.551
REMARK UNBOUND:                -0.814
REMARK  Name = 5365976
REMARK  8 active torsions:
REMARK  status: ('A' for Active; 'I' for Inactive)
REMARK    1  A    between atoms: C_2  and  C_7
REMARK    2  A    between atoms: C_2  and  C_8
REMARK    3  A    between atoms: C_3  and  C_10
REMARK    4  A    between atoms: C_6  and  C_11
REMARK    5  A    between atoms: C_12  and  C_13
REMARK    6  A    between atoms: C_13  and  C_14
REMARK    7  A    between atoms: C_14  and  C_15
REMARK    8  A    between atoms: C_15  and  C_16
REMARK                            x       y       z     vdW  Elec       q    Type
REMARK                         _______ _______ _______ _____ _____    ______ ____
ROOT
ATOM      1  C   UNL     1      -9.338  14.312   4.649  0.00  0.00    +0.000 C 
ATOM      2  C   UNL     1      -9.141  12.763   4.481  0.00  0.00    +0.000 C 
ATOM      3  C   UNL     1      -8.719  14.764   5.993  0.00  0.00    +0.000 C 
ATOM      4  C   UNL     1      -7.239  14.395   6.127  0.00  0.00    +0.000 C 
ATOM      5  C   UNL     1      -7.712  12.326   4.777  0.00  0.00    +0.000 C 
ATOM      6  C   UNL     1      -6.877  13.072   5.523  0.00  0.00    +0.000 C 
ATOM      7  H   UNL     1      -9.335  12.539   3.421  0.00  0.00    +0.000 HD
ATOM      8  H   UNL     1      -9.271  14.310   6.825  0.00  0.00    +0.000 HD
ATOM      9  H   UNL     1      -8.830  15.849   6.120  0.00  0.00    +0.000 HD
ATOM     10  H   UNL     1      -6.968  14.396   7.189  0.00  0.00    +0.000 HD
ATOM     11  H   UNL     1      -6.626  15.168   5.648  0.00  0.00    +0.000 HD
ATOM     12  H   UNL     1      -5.861  12.729   5.699  0.00  0.00    +0.000 HD
ENDROOT
BRANCH   1  13
ATOM     13  C   UNL     1      -8.658  15.056   3.473  0.00  0.00    +0.000 C 
ATOM     14  H   UNL     1      -8.769  16.142   3.580  0.00  0.00    +0.000 HD
ATOM     15  H   UNL     1      -7.587  14.843   3.398  0.00  0.00    +0.000 HD
ATOM     16  H   UNL     1      -9.112  14.772   2.517  0.00  0.00    +0.000 HD
ENDBRANCH   1  13
BRANCH   1  17
ATOM     17  C   UNL     1     -10.830  14.709   4.622  0.00  0.00    +0.000 C 
ATOM     18  H   UNL     1     -11.102  15.268   5.525  0.00  0.00    +0.000 HD
ATOM     19  H   UNL     1     -11.055  15.344   3.758  0.00  0.00    +0.000 HD
ATOM     20  H   UNL     1     -11.488  13.834   4.581  0.00  0.00    +0.000 HD
ENDBRANCH   1  17
BRANCH   2  21
ATOM     21  C   UNL     1     -10.094  11.952   5.320  0.00  0.00    +0.000 C 
ATOM     22  C   UNL     1      -9.737  11.340   6.456  0.00  0.00    +0.000 C 
ATOM     23  H   UNL     1     -11.121  11.879   4.967  0.00  0.00    +0.000 HD
ATOM     24  H   UNL     1      -8.722  11.395   6.836  0.00  0.00    +0.000 HD
BRANCH  22  26
ATOM     25  O   UNL     1     -11.917  10.852   7.274  0.00  0.00    +0.000 OA
ATOM     26  C   UNL     1     -10.726  10.551   7.244  0.00  0.00    +0.000 C 
BRANCH  26  27
ATOM     27  C   UNL     1     -10.158   9.363   8.002  0.00  0.00    +0.000 C 
ATOM     28  H   UNL     1     -10.474   9.447   9.049  0.00  0.00    +0.000 HD
ATOM     29  H   UNL     1     -10.591   8.448   7.579  0.00  0.00    +0.000 HD
BRANCH  27  30
ATOM     30  C   UNL     1      -8.633   9.299   7.925  0.00  0.00    +0.000 C 
ATOM     31  H   UNL     1      -8.227  10.303   7.744  0.00  0.00    +0.000 HD
ATOM     32  H   UNL     1      -8.331   8.683   7.069  0.00  0.00    +0.000 HD
BRANCH  30  33
ATOM     33  C   UNL     1      -8.047   8.703   9.171  0.00  0.00    +0.000 C 
ATOM     34  C   UNL     1      -7.217   9.356   9.993  0.00  0.00    +0.000 C 
ATOM     35  H   UNL     1      -8.306   7.674   9.402  0.00  0.00    +0.000 HD
ATOM     36  H   UNL     1      -6.822   8.865  10.875  0.00  0.00    +0.000 HD
ATOM     37  H   UNL     1      -6.920  10.381   9.804  0.00  0.00    +0.000 HD
ENDBRANCH  30  33
ENDBRANCH  27  30
ENDBRANCH  26  27
ENDBRANCH  22  26
ENDBRANCH   2  21
BRANCH   5  38
ATOM     38  C   UNL     1      -7.268  11.019   4.182  0.00  0.00    +0.000 C 
ATOM     39  H   UNL     1      -7.275  10.226   4.937  0.00  0.00    +0.000 HD
ATOM     40  H   UNL     1      -6.253  11.076   3.774  0.00  0.00    +0.000 HD
ATOM     41  H   UNL     1      -7.937  10.728   3.366  0.00  0.00    +0.000 HD
ENDBRANCH   5  38
TORSDOF 8
ENDMDL
MODEL 10
REMARK VINA RESULT:    -4.806     15.048     17.644
REMARK INTER + INTRA:          -7.446
REMARK INTER:                  -6.632
REMARK INTRA:                  -0.814
REMARK UNBOUND:                -0.814
REMARK  Name = 5365976
REMARK  8 active torsions:
REMARK  status: ('A' for Active; 'I' for Inactive)
REMARK    1  A    between atoms: C_2  and  C_7
REMARK    2  A    between atoms: C_2  and  C_8
REMARK    3  A    between atoms: C_3  and  C_10
REMARK    4  A    between atoms: C_6  and  C_11
REMARK    5  A    between atoms: C_12  and  C_13
REMARK    6  A    between atoms: C_13  and  C_14
REMARK    7  A    between atoms: C_14  and  C_15
REMARK    8  A    between atoms: C_15  and  C_16
REMARK                            x       y       z     vdW  Elec       q    Type
REMARK                         _______ _______ _______ _____ _____    ______ ____
ROOT
ATOM      1  C   UNL     1      13.238  -4.114   7.039  0.00  0.00    +0.000 C 
ATOM      2  C   UNL     1      12.895  -5.626   7.289  0.00  0.00    +0.000 C 
ATOM      3  C   UNL     1      13.388  -3.391   8.398  0.00  0.00    +0.000 C 
ATOM      4  C   UNL     1      14.437  -4.035   9.308  0.00  0.00    +0.000 C 
ATOM      5  C   UNL     1      13.811  -6.263   8.325  0.00  0.00    +0.000 C 
ATOM      6  C   UNL     1      14.490  -5.530   9.225  0.00  0.00    +0.000 C 
ATOM      7  H   UNL     1      13.072  -6.145   6.336  0.00  0.00    +0.000 HD
ATOM      8  H   UNL     1      12.424  -3.386   8.922  0.00  0.00    +0.000 HD
ATOM      9  H   UNL     1      13.648  -2.335   8.245  0.00  0.00    +0.000 HD
ATOM     10  H   UNL     1      14.241  -3.736  10.344  0.00  0.00    +0.000 HD
ATOM     11  H   UNL     1      15.430  -3.644   9.054  0.00  0.00    +0.000 HD
ATOM     12  H   UNL     1      15.144  -6.026   9.939  0.00  0.00    +0.000 HD
ENDROOT
BRANCH   1  13
ATOM     13  C   UNL     1      14.554  -4.003   6.230  0.00  0.00    +0.000 C 
ATOM     14  H   UNL     1      14.963  -2.987   6.283  0.00  0.00    +0.000 HD
ATOM     15  H   UNL     1      15.331  -4.687   6.587  0.00  0.00    +0.000 HD
ATOM     16  H   UNL     1      14.383  -4.233   5.172  0.00  0.00    +0.000 HD
ENDBRANCH   1  13
BRANCH   1  17
ATOM     17  C   UNL     1      12.146  -3.404   6.209  0.00  0.00    +0.000 C 
ATOM     18  H   UNL     1      12.578  -2.604   5.596  0.00  0.00    +0.000 HD
ATOM     19  H   UNL     1      11.645  -4.107   5.533  0.00  0.00    +0.000 HD
ATOM     20  H   UNL     1      11.383  -2.941   6.844  0.00  0.00    +0.000 HD
ENDBRANCH   1  17
BRANCH   2  21
ATOM     21  C   UNL     1      11.459  -5.847   7.691  0.00  0.00    +0.000 C 
ATOM     22  C   UNL     1      11.033  -5.791   8.958  0.00  0.00    +0.000 C 
ATOM     23  H   UNL     1      10.751  -6.055   6.891  0.00  0.00    +0.000 HD
ATOM     24  H   UNL     1      11.713  -5.583   9.778  0.00  0.00    +0.000 HD
BRANCH  22  26
ATOM     25  O   UNL     1       9.078  -5.512  10.286  0.00  0.00    +0.000 OA
ATOM     26  C   UNL     1       9.598  -6.018   9.294  0.00  0.00    +0.000 C 
BRANCH  26  27
ATOM     27  C   UNL     1       8.837  -6.915   8.333  0.00  0.00    +0.000 C 
ATOM     28  H   UNL     1       7.955  -6.366   7.982  0.00  0.00    +0.000 HD
ATOM     29  H   UNL     1       9.485  -7.120   7.471  0.00  0.00    +0.000 HD
BRANCH  27  30
ATOM     30  C   UNL     1       8.405  -8.230   8.982  0.00  0.00    +0.000 C 
ATOM     31  H   UNL     1       7.346  -8.422   8.765  0.00  0.00    +0.000 HD
ATOM     32  H   UNL     1       8.490  -8.150  10.072  0.00  0.00    +0.000 HD
BRANCH  30  33
ATOM     33  C   UNL     1       9.259  -9.373   8.520  0.00  0.00    +0.000 C 
ATOM     34  C   UNL     1      10.531  -9.557   8.895  0.00  0.00    +0.000 C 
ATOM     35  H   UNL     1       8.815 -10.081   7.827  0.00  0.00    +0.000 HD
ATOM     36  H   UNL     1      11.097 -10.401   8.518  0.00  0.00    +0.000 HD
ATOM     37  H   UNL     1      11.025  -8.875   9.579  0.00  0.00    +0.000 HD
ENDBRANCH  30  33
ENDBRANCH  27  30
ENDBRANCH  26  27
ENDBRANCH  22  26
ENDBRANCH   2  21
BRANCH   5  38
ATOM     38  C   UNL     1      13.935  -7.761   8.287  0.00  0.00    +0.000 C 
ATOM     39  H   UNL     1      13.364  -8.219   9.100  0.00  0.00    +0.000 HD
ATOM     40  H   UNL     1      14.975  -8.091   8.387  0.00  0.00    +0.000 HD
ATOM     41  H   UNL     1      13.556  -8.148   7.335  0.00  0.00    +0.000 HD
ENDBRANCH   5  38
TORSDOF 8
ENDMDL
