MODEL 1
REMARK VINA RESULT:    -5.063      0.000      0.000
REMARK INTER + INTRA:          -6.004
REMARK INTER:                  -5.803
REMARK INTRA:                  -0.201
REMARK UNBOUND:                -0.201
REMARK  Name = 261491
REMARK  4 active torsions:
REMARK  status: ('A' for Active; 'I' for Inactive)
REMARK    1  A    between atoms: C_2  and  C_7
REMARK    2  A    between atoms: C_5  and  C_9
REMARK    3  A    between atoms: C_7  and  C_10
REMARK    4  A    between atoms: C_7  and  C_11
REMARK                            x       y       z     vdW  Elec       q    Type
REMARK                         _______ _______ _______ _____ _____    ______ ____
ROOT
ATOM      1  O   UNL     1      -2.615   6.415 -13.751  0.00  0.00    +0.000 OA
ATOM      2  C   UNL     1      -2.378   7.766 -10.459  0.00  0.00    +0.000 C 
ATOM      3  C   UNL     1      -3.855   7.572 -10.604  0.00  0.00    +0.000 C 
ATOM      4  C   UNL     1      -3.088   6.763  -9.591  0.00  0.00    +0.000 C 
ATOM      5  C   UNL     1      -4.167   7.005 -11.966  0.00  0.00    +0.000 C 
ATOM      6  C   UNL     1      -1.681   7.341 -11.717  0.00  0.00    +0.000 C 
ATOM      7  C   UNL     1      -2.798   6.859 -12.625  0.00  0.00    +0.000 C 
ATOM      8  H   UNL     1      -4.553   8.310 -10.237  0.00  0.00    +0.000 HD
ATOM      9  H   UNL     1      -2.930   5.708  -9.783  0.00  0.00    +0.000 HD
ATOM     10  H   UNL     1      -3.246   6.992  -8.544  0.00  0.00    +0.000 HD
ATOM     11  H   UNL     1      -4.620   6.013 -11.865  0.00  0.00    +0.000 HD
ATOM     12  H   UNL     1      -0.995   6.513 -11.518  0.00  0.00    +0.000 HD
ATOM     13  H   UNL     1      -1.151   8.145 -12.231  0.00  0.00    +0.000 HD
ENDROOT
BRANCH   5  14
ATOM     14  C   UNL     1      -5.051   7.929 -12.786  0.00  0.00    +0.000 C 
ATOM     15  H   UNL     1      -5.624   7.373 -13.536  0.00  0.00    +0.000 HD
ATOM     16  H   UNL     1      -5.767   8.454 -12.145  0.00  0.00    +0.000 HD
ATOM     17  H   UNL     1      -4.450   8.678 -13.312  0.00  0.00    +0.000 HD
ENDBRANCH   5  14
BRANCH   2  18
ATOM     18  C   UNL     1      -1.876   9.006  -9.807  0.00  0.00    +0.000 C 
ATOM     19  H   UNL     1      -1.072   8.755  -9.101  0.00  0.00    +0.000 HD
BRANCH  18  20
ATOM     20  C   UNL     1      -1.290   9.982 -10.835  0.00  0.00    +0.000 C 
ATOM     21  H   UNL     1      -0.242   9.758 -11.062  0.00  0.00    +0.000 HD
ATOM     22  H   UNL     1      -1.853   9.940 -11.773  0.00  0.00    +0.000 HD
ATOM     23  H   UNL     1      -1.335  11.011 -10.461  0.00  0.00    +0.000 HD
ENDBRANCH  18  20
BRANCH  18  24
ATOM     24  C   UNL     1      -2.979   9.701  -9.000  0.00  0.00    +0.000 C 
ATOM     25  H   UNL     1      -3.421  10.550  -9.529  0.00  0.00    +0.000 HD
ATOM     26  H   UNL     1      -2.571  10.086  -8.058  0.00  0.00    +0.000 HD
ATOM     27  H   UNL     1      -3.786   9.005  -8.749  0.00  0.00    +0.000 HD
ENDBRANCH  18  24
ENDBRANCH   2  18
TORSDOF 4
ENDMDL
MODEL 2
REMARK VINA RESULT:    -4.977      1.455      2.885
REMARK INTER + INTRA:          -5.906
REMARK INTER:                  -5.741
REMARK INTRA:                  -0.165
REMARK UNBOUND:                -0.201
REMARK  Name = 261491
REMARK  4 active torsions:
REMARK  status: ('A' for Active; 'I' for Inactive)
REMARK    1  A    between atoms: C_2  and  C_7
REMARK    2  A    between atoms: C_5  and  C_9
REMARK    3  A    between atoms: C_7  and  C_10
REMARK    4  A    between atoms: C_7  and  C_11
REMARK                            x       y       z     vdW  Elec       q    Type
REMARK                         _______ _______ _______ _____ _____    ______ ____
ROOT
ATOM      1  O   UNL     1      -0.128   8.004 -12.938  0.00  0.00    +0.000 OA
ATOM      2  C   UNL     1      -2.938   7.575 -10.785  0.00  0.00    +0.000 C 
ATOM      3  C   UNL     1      -3.008   9.039 -11.091  0.00  0.00    +0.000 C 
ATOM      4  C   UNL     1      -4.099   8.119 -11.573  0.00  0.00    +0.000 C 
ATOM      5  C   UNL     1      -1.871   9.428 -12.002  0.00  0.00    +0.000 C 
ATOM      6  C   UNL     1      -1.756   6.965 -11.476  0.00  0.00    +0.000 C 
ATOM      7  C   UNL     1      -1.123   8.118 -12.234  0.00  0.00    +0.000 C 
ATOM      8  H   UNL     1      -3.256   9.758 -10.323  0.00  0.00    +0.000 HD
ATOM      9  H   UNL     1      -4.157   7.894 -12.631  0.00  0.00    +0.000 HD
ATOM     10  H   UNL     1      -5.068   8.198 -11.094  0.00  0.00    +0.000 HD
ATOM     11  H   UNL     1      -2.263   9.788 -12.958  0.00  0.00    +0.000 HD
ATOM     12  H   UNL     1      -2.076   6.199 -12.188  0.00  0.00    +0.000 HD
ATOM     13  H   UNL     1      -1.004   6.551 -10.801  0.00  0.00    +0.000 HD
ENDROOT
BRANCH   5  14
ATOM     14  C   UNL     1      -0.950  10.455 -11.365  0.00  0.00    +0.000 C 
ATOM     15  H   UNL     1      -0.881  11.363 -11.976  0.00  0.00    +0.000 HD
ATOM     16  H   UNL     1      -1.318  10.750 -10.377  0.00  0.00    +0.000 HD
ATOM     17  H   UNL     1       0.061  10.053 -11.248  0.00  0.00    +0.000 HD
ENDBRANCH   5  14
BRANCH   2  18
ATOM     18  C   UNL     1      -3.205   7.117  -9.395  0.00  0.00    +0.000 C 
ATOM     19  H   UNL     1      -2.470   6.353  -9.107  0.00  0.00    +0.000 HD
BRANCH  18  20
ATOM     20  C   UNL     1      -3.079   8.270  -8.390  0.00  0.00    +0.000 C 
ATOM     21  H   UNL     1      -3.203   9.246  -8.870  0.00  0.00    +0.000 HD
ATOM     22  H   UNL     1      -3.838   8.183  -7.605  0.00  0.00    +0.000 HD
ATOM     23  H   UNL     1      -2.094   8.259  -7.911  0.00  0.00    +0.000 HD
ENDBRANCH  18  20
BRANCH  18  24
ATOM     24  C   UNL     1      -4.592   6.471  -9.274  0.00  0.00    +0.000 C 
ATOM     25  H   UNL     1      -5.034   6.601  -8.282  0.00  0.00    +0.000 HD
ATOM     26  H   UNL     1      -4.522   5.392  -9.457  0.00  0.00    +0.000 HD
ATOM     27  H   UNL     1      -5.288   6.887 -10.009  0.00  0.00    +0.000 HD
ENDBRANCH  18  24
ENDBRANCH   2  18
TORSDOF 4
ENDMDL
MODEL 3
REMARK VINA RESULT:    -4.820     17.238     18.702
REMARK INTER + INTRA:          -5.726
REMARK INTER:                  -5.526
REMARK INTRA:                  -0.199
REMARK UNBOUND:                -0.201
REMARK  Name = 261491
REMARK  4 active torsions:
REMARK  status: ('A' for Active; 'I' for Inactive)
REMARK    1  A    between atoms: C_2  and  C_7
REMARK    2  A    between atoms: C_5  and  C_9
REMARK    3  A    between atoms: C_7  and  C_10
REMARK    4  A    between atoms: C_7  and  C_11
REMARK                            x       y       z     vdW  Elec       q    Type
REMARK                         _______ _______ _______ _____ _____    ______ ____
ROOT
ATOM      1  O   UNL     1      -6.257  13.502   7.965  0.00  0.00    +0.000 OA
ATOM      2  C   UNL     1      -8.264  11.982   5.440  0.00  0.00    +0.000 C 
ATOM      3  C   UNL     1      -7.318  12.806   4.623  0.00  0.00    +0.000 C 
ATOM      4  C   UNL     1      -7.274  11.302   4.533  0.00  0.00    +0.000 C 
ATOM      5  C   UNL     1      -6.372  13.551   5.530  0.00  0.00    +0.000 C 
ATOM      6  C   UNL     1      -7.974  12.167   6.899  0.00  0.00    +0.000 C 
ATOM      7  C   UNL     1      -6.795  13.122   6.933  0.00  0.00    +0.000 C 
ATOM      8  H   UNL     1      -7.660  13.353   3.757  0.00  0.00    +0.000 HD
ATOM      9  H   UNL     1      -6.436  10.782   4.981  0.00  0.00    +0.000 HD
ATOM     10  H   UNL     1      -7.628  10.845   3.617  0.00  0.00    +0.000 HD
ATOM     11  H   UNL     1      -5.343  13.221   5.352  0.00  0.00    +0.000 HD
ATOM     12  H   UNL     1      -7.683  11.218   7.359  0.00  0.00    +0.000 HD
ATOM     13  H   UNL     1      -8.790  12.617   7.467  0.00  0.00    +0.000 HD
ENDROOT
BRANCH   5  14
ATOM     14  C   UNL     1      -6.498  15.058   5.379  0.00  0.00    +0.000 C 
ATOM     15  H   UNL     1      -6.147  15.580   6.277  0.00  0.00    +0.000 HD
ATOM     16  H   UNL     1      -5.901  15.416   4.534  0.00  0.00    +0.000 HD
ATOM     17  H   UNL     1      -7.540  15.347   5.210  0.00  0.00    +0.000 HD
ENDBRANCH   5  14
BRANCH   2  18
ATOM     18  C   UNL     1      -9.699  11.934   5.048  0.00  0.00    +0.000 C 
ATOM     19  H   UNL     1      -9.862  11.118   4.331  0.00  0.00    +0.000 HD
BRANCH  18  20
ATOM     20  C   UNL     1     -10.602  11.663   6.259  0.00  0.00    +0.000 C 
ATOM     21  H   UNL     1     -10.040  11.257   7.106  0.00  0.00    +0.000 HD
ATOM     22  H   UNL     1     -11.090  12.585   6.591  0.00  0.00    +0.000 HD
ATOM     23  H   UNL     1     -11.385  10.941   6.003  0.00  0.00    +0.000 HD
ENDBRANCH  18  20
BRANCH  18  24
ATOM     24  C   UNL     1     -10.135  13.232   4.356  0.00  0.00    +0.000 C 
ATOM     25  H   UNL     1     -10.708  13.891   5.014  0.00  0.00    +0.000 HD
ATOM     26  H   UNL     1     -10.774  13.003   3.494  0.00  0.00    +0.000 HD
ATOM     27  H   UNL     1      -9.271  13.793   3.986  0.00  0.00    +0.000 HD
ENDBRANCH  18  24
ENDBRANCH   2  18
TORSDOF 4
ENDMDL
MODEL 4
REMARK VINA RESULT:    -4.773      1.824      3.436
REMARK INTER + INTRA:          -5.671
REMARK INTER:                  -5.587
REMARK INTRA:                  -0.085
REMARK UNBOUND:                -0.201
REMARK  Name = 261491
REMARK  4 active torsions:
REMARK  status: ('A' for Active; 'I' for Inactive)
REMARK    1  A    between atoms: C_2  and  C_7
REMARK    2  A    between atoms: C_5  and  C_9
REMARK    3  A    between atoms: C_7  and  C_10
REMARK    4  A    between atoms: C_7  and  C_11
REMARK                            x       y       z     vdW  Elec       q    Type
REMARK                         _______ _______ _______ _____ _____    ______ ____
ROOT
ATOM      1  O   UNL     1      -2.676  10.468 -13.714  0.00  0.00    +0.000 OA
ATOM      2  C   UNL     1      -3.084   8.532 -10.748  0.00  0.00    +0.000 C 
ATOM      3  C   UNL     1      -1.649   8.947 -10.646  0.00  0.00    +0.000 C 
ATOM      4  C   UNL     1      -2.649   9.451  -9.638  0.00  0.00    +0.000 C 
ATOM      5  C   UNL     1      -1.272   9.785 -11.842  0.00  0.00    +0.000 C 
ATOM      6  C   UNL     1      -3.686   9.076 -12.009  0.00  0.00    +0.000 C 
ATOM      7  C   UNL     1      -2.559   9.859 -12.659  0.00  0.00    +0.000 C 
ATOM      8  H   UNL     1      -0.892   8.256 -10.305  0.00  0.00    +0.000 HD
ATOM      9  H   UNL     1      -2.948  10.491  -9.681  0.00  0.00    +0.000 HD
ATOM     10  H   UNL     1      -2.581   9.062  -8.629  0.00  0.00    +0.000 HD
ATOM     11  H   UNL     1      -0.996  10.794 -11.521  0.00  0.00    +0.000 HD
ATOM     12  H   UNL     1      -4.512   9.755 -11.782  0.00  0.00    +0.000 HD
ATOM     13  H   UNL     1      -4.018   8.313 -12.715  0.00  0.00    +0.000 HD
ENDROOT
BRANCH   5  14
ATOM     14  C   UNL     1      -0.163   9.149 -12.663  0.00  0.00    +0.000 C 
ATOM     15  H   UNL     1       0.694   9.825 -12.769  0.00  0.00    +0.000 HD
ATOM     16  H   UNL     1       0.197   8.231 -12.187  0.00  0.00    +0.000 HD
ATOM     17  H   UNL     1      -0.516   8.898 -13.668  0.00  0.00    +0.000 HD
ENDBRANCH   5  14
BRANCH   2  18
ATOM     18  C   UNL     1      -3.459   7.140 -10.380  0.00  0.00    +0.000 C 
ATOM     19  H   UNL     1      -2.709   6.438 -10.769  0.00  0.00    +0.000 HD
BRANCH  18  20
ATOM     20  C   UNL     1      -3.505   6.956  -8.857  0.00  0.00    +0.000 C 
ATOM     21  H   UNL     1      -4.358   7.474  -8.409  0.00  0.00    +0.000 HD
ATOM     22  H   UNL     1      -3.584   5.894  -8.598  0.00  0.00    +0.000 HD
ATOM     23  H   UNL     1      -2.595   7.349  -8.392  0.00  0.00    +0.000 HD
ENDBRANCH  18  20
BRANCH  18  24
ATOM     24  C   UNL     1      -4.807   6.741 -10.993  0.00  0.00    +0.000 C 
ATOM     25  H   UNL     1      -4.945   7.134 -12.004  0.00  0.00    +0.000 HD
ATOM     26  H   UNL     1      -5.629   7.131 -10.381  0.00  0.00    +0.000 HD
ATOM     27  H   UNL     1      -4.916   5.653 -11.038  0.00  0.00    +0.000 HD
ENDBRANCH  18  24
ENDBRANCH   2  18
TORSDOF 4
ENDMDL
MODEL 5
REMARK VINA RESULT:    -4.764      1.507      2.192
REMARK INTER + INTRA:          -5.662
REMARK INTER:                  -5.524
REMARK INTRA:                  -0.138
REMARK UNBOUND:                -0.201
REMARK  Name = 261491
REMARK  4 active torsions:
REMARK  status: ('A' for Active; 'I' for Inactive)
REMARK    1  A    between atoms: C_2  and  C_7
REMARK    2  A    between atoms: C_5  and  C_9
REMARK    3  A    between atoms: C_7  and  C_10
REMARK    4  A    between atoms: C_7  and  C_11
REMARK                            x       y       z     vdW  Elec       q    Type
REMARK                         _______ _______ _______ _____ _____    ______ ____
ROOT
ATOM      1  O   UNL     1      -5.757   7.797 -13.319  0.00  0.00    +0.000 OA
ATOM      2  C   UNL     1      -3.075   8.443 -11.060  0.00  0.00    +0.000 C 
ATOM      3  C   UNL     1      -3.531   7.088 -10.614  0.00  0.00    +0.000 C 
ATOM      4  C   UNL     1      -2.161   7.257 -11.217  0.00  0.00    +0.000 C 
ATOM      5  C   UNL     1      -4.694   6.634 -11.460  0.00  0.00    +0.000 C 
ATOM      6  C   UNL     1      -3.924   8.918 -12.201  0.00  0.00    +0.000 C 
ATOM      7  C   UNL     1      -4.902   7.783 -12.443  0.00  0.00    +0.000 C 
ATOM      8  H   UNL     1      -3.593   6.839  -9.564  0.00  0.00    +0.000 HD
ATOM      9  H   UNL     1      -1.982   6.870 -12.213  0.00  0.00    +0.000 HD
ATOM     10  H   UNL     1      -1.308   7.160 -10.555  0.00  0.00    +0.000 HD
ATOM     11  H   UNL     1      -4.422   5.733 -12.018  0.00  0.00    +0.000 HD
ATOM     12  H   UNL     1      -3.318   9.068 -13.098  0.00  0.00    +0.000 HD
ATOM     13  H   UNL     1      -4.499   9.820 -11.988  0.00  0.00    +0.000 HD
ENDROOT
BRANCH   5  14
ATOM     14  C   UNL     1      -5.951   6.410 -10.636  0.00  0.00    +0.000 C 
ATOM     15  H   UNL     1      -6.798   6.979 -11.037  0.00  0.00    +0.000 HD
ATOM     16  H   UNL     1      -6.234   5.352 -10.636  0.00  0.00    +0.000 HD
ATOM     17  H   UNL     1      -5.798   6.724  -9.599  0.00  0.00    +0.000 HD
ENDBRANCH   5  14
BRANCH   2  18
ATOM     18  C   UNL     1      -2.715   9.456 -10.032  0.00  0.00    +0.000 C 
ATOM     19  H   UNL     1      -3.392  10.318 -10.107  0.00  0.00    +0.000 HD
BRANCH  18  20
ATOM     20  C   UNL     1      -2.856   8.890  -8.613  0.00  0.00    +0.000 C 
ATOM     21  H   UNL     1      -1.883   8.717  -8.143  0.00  0.00    +0.000 HD
ATOM     22  H   UNL     1      -3.419   9.580  -7.975  0.00  0.00    +0.000 HD
ATOM     23  H   UNL     1      -3.391   7.934  -8.630  0.00  0.00    +0.000 HD
ENDBRANCH  18  20
BRANCH  18  24
ATOM     24  C   UNL     1      -1.291   9.986 -10.241  0.00  0.00    +0.000 C 
ATOM     25  H   UNL     1      -0.876  10.450  -9.342  0.00  0.00    +0.000 HD
ATOM     26  H   UNL     1      -1.285  10.749 -11.029  0.00  0.00    +0.000 HD
ATOM     27  H   UNL     1      -0.612   9.186 -10.550  0.00  0.00    +0.000 HD
ENDBRANCH  18  24
ENDBRANCH   2  18
TORSDOF 4
ENDMDL
MODEL 6
REMARK VINA RESULT:    -4.676      2.036      2.903
REMARK INTER + INTRA:          -5.561
REMARK INTER:                  -5.473
REMARK INTRA:                  -0.088
REMARK UNBOUND:                -0.201
REMARK  Name = 261491
REMARK  4 active torsions:
REMARK  status: ('A' for Active; 'I' for Inactive)
REMARK    1  A    between atoms: C_2  and  C_7
REMARK    2  A    between atoms: C_5  and  C_9
REMARK    3  A    between atoms: C_7  and  C_10
REMARK    4  A    between atoms: C_7  and  C_11
REMARK                            x       y       z     vdW  Elec       q    Type
REMARK                         _______ _______ _______ _____ _____    ______ ____
ROOT
ATOM      1  O   UNL     1      -0.534  10.886 -12.779  0.00  0.00    +0.000 OA
ATOM      2  C   UNL     1      -2.140   8.319 -10.897  0.00  0.00    +0.000 C 
ATOM      3  C   UNL     1      -2.540   7.967 -12.297  0.00  0.00    +0.000 C 
ATOM      4  C   UNL     1      -1.648   7.038 -11.515  0.00  0.00    +0.000 C 
ATOM      5  C   UNL     1      -1.954   8.965 -13.263  0.00  0.00    +0.000 C 
ATOM      6  C   UNL     1      -1.292   9.555 -10.903  0.00  0.00    +0.000 C 
ATOM      7  C   UNL     1      -1.174   9.926 -12.370  0.00  0.00    +0.000 C 
ATOM      8  H   UNL     1      -3.542   7.633 -12.523  0.00  0.00    +0.000 HD
ATOM      9  H   UNL     1      -0.603   6.967 -11.794  0.00  0.00    +0.000 HD
ATOM     10  H   UNL     1      -2.072   6.097 -11.184  0.00  0.00    +0.000 HD
ATOM     11  H   UNL     1      -1.255   8.465 -13.942  0.00  0.00    +0.000 HD
ATOM     12  H   UNL     1      -0.296   9.342 -10.504  0.00  0.00    +0.000 HD
ATOM     13  H   UNL     1      -1.729  10.403 -10.374  0.00  0.00    +0.000 HD
ENDROOT
BRANCH   5  14
ATOM     14  C   UNL     1      -3.026   9.715 -14.035  0.00  0.00    +0.000 C 
ATOM     15  H   UNL     1      -3.499  10.486 -13.416  0.00  0.00    +0.000 HD
ATOM     16  H   UNL     1      -2.598  10.213 -14.913  0.00  0.00    +0.000 HD
ATOM     17  H   UNL     1      -3.810   9.032 -14.377  0.00  0.00    +0.000 HD
ENDBRANCH   5  14
BRANCH   2  18
ATOM     18  C   UNL     1      -3.153   8.213  -9.812  0.00  0.00    +0.000 C 
ATOM     19  H   UNL     1      -4.146   8.475 -10.203  0.00  0.00    +0.000 HD
BRANCH  18  20
ATOM     20  C   UNL     1      -3.243   6.781  -9.266  0.00  0.00    +0.000 C 
ATOM     21  H   UNL     1      -4.224   6.571  -8.830  0.00  0.00    +0.000 HD
ATOM     22  H   UNL     1      -3.067   6.052 -10.064  0.00  0.00    +0.000 HD
ATOM     23  H   UNL     1      -2.490   6.617  -8.487  0.00  0.00    +0.000 HD
ENDBRANCH  18  20
BRANCH  18  24
ATOM     24  C   UNL     1      -2.851   9.188  -8.666  0.00  0.00    +0.000 C 
ATOM     25  H   UNL     1      -2.132   8.786  -7.947  0.00  0.00    +0.000 HD
ATOM     26  H   UNL     1      -3.770   9.412  -8.112  0.00  0.00    +0.000 HD
ATOM     27  H   UNL     1      -2.455  10.134  -9.046  0.00  0.00    +0.000 HD
ENDBRANCH  18  24
ENDBRANCH   2  18
TORSDOF 4
ENDMDL
MODEL 7
REMARK VINA RESULT:    -4.543     24.593     25.965
REMARK INTER + INTRA:          -5.408
REMARK INTER:                  -5.207
REMARK INTRA:                  -0.201
REMARK UNBOUND:                -0.201
REMARK  Name = 261491
REMARK  4 active torsions:
REMARK  status: ('A' for Active; 'I' for Inactive)
REMARK    1  A    between atoms: C_2  and  C_7
REMARK    2  A    between atoms: C_5  and  C_9
REMARK    3  A    between atoms: C_7  and  C_10
REMARK    4  A    between atoms: C_7  and  C_11
REMARK                            x       y       z     vdW  Elec       q    Type
REMARK                         _______ _______ _______ _____ _____    ______ ____
ROOT
ATOM      1  O   UNL     1     -23.066  -4.418   4.051  0.00  0.00    +0.000 OA
ATOM      2  C   UNL     1     -19.770  -5.247   2.973  0.00  0.00    +0.000 C 
ATOM      3  C   UNL     1     -19.495  -4.459   4.216  0.00  0.00    +0.000 C 
ATOM      4  C   UNL     1     -19.146  -5.924   4.163  0.00  0.00    +0.000 C 
ATOM      5  C   UNL     1     -20.794  -3.999   4.828  0.00  0.00    +0.000 C 
ATOM      6  C   UNL     1     -21.248  -5.321   2.730  0.00  0.00    +0.000 C 
ATOM      7  C   UNL     1     -21.861  -4.562   3.893  0.00  0.00    +0.000 C 
ATOM      8  H   UNL     1     -18.684  -3.748   4.257  0.00  0.00    +0.000 HD
ATOM      9  H   UNL     1     -19.747  -6.620   4.736  0.00  0.00    +0.000 HD
ATOM     10  H   UNL     1     -18.095  -6.187   4.128  0.00  0.00    +0.000 HD
ATOM     11  H   UNL     1     -20.920  -4.444   5.821  0.00  0.00    +0.000 HD
ATOM     12  H   UNL     1     -21.593  -6.358   2.755  0.00  0.00    +0.000 HD
ATOM     13  H   UNL     1     -21.576  -4.845   1.805  0.00  0.00    +0.000 HD
ENDROOT
BRANCH   5  14
ATOM     14  C   UNL     1     -20.895  -2.484   4.892  0.00  0.00    +0.000 C 
ATOM     15  H   UNL     1     -20.275  -2.076   5.698  0.00  0.00    +0.000 HD
ATOM     16  H   UNL     1     -20.558  -2.031   3.953  0.00  0.00    +0.000 HD
ATOM     17  H   UNL     1     -21.927  -2.169   5.072  0.00  0.00    +0.000 HD
ENDBRANCH   5  14
BRANCH   2  18
ATOM     18  C   UNL     1     -18.910  -5.029   1.778  0.00  0.00    +0.000 C 
ATOM     19  H   UNL     1     -18.959  -5.908   1.120  0.00  0.00    +0.000 HD
BRANCH  18  20
ATOM     20  C   UNL     1     -19.384  -3.821   0.959  0.00  0.00    +0.000 C 
ATOM     21  H   UNL     1     -19.802  -4.121  -0.008  0.00  0.00    +0.000 HD
ATOM     22  H   UNL     1     -20.157  -3.266   1.501  0.00  0.00    +0.000 HD
ATOM     23  H   UNL     1     -18.552  -3.136   0.763  0.00  0.00    +0.000 HD
ENDBRANCH  18  20
BRANCH  18  24
ATOM     24  C   UNL     1     -17.439  -4.846   2.172  0.00  0.00    +0.000 C 
ATOM     25  H   UNL     1     -16.809  -4.548   1.329  0.00  0.00    +0.000 HD
ATOM     26  H   UNL     1     -17.033  -5.787   2.560  0.00  0.00    +0.000 HD
ATOM     27  H   UNL     1     -17.330  -4.090   2.956  0.00  0.00    +0.000 HD
ENDBRANCH  18  24
ENDBRANCH   2  18
TORSDOF 4
ENDMDL
MODEL 8
REMARK VINA RESULT:    -4.513      7.956      9.008
REMARK INTER + INTRA:          -5.373
REMARK INTER:                  -5.196
REMARK INTRA:                  -0.178
REMARK UNBOUND:                -0.201
REMARK  Name = 261491
REMARK  4 active torsions:
REMARK  status: ('A' for Active; 'I' for Inactive)
REMARK    1  A    between atoms: C_2  and  C_7
REMARK    2  A    between atoms: C_5  and  C_9
REMARK    3  A    between atoms: C_7  and  C_10
REMARK    4  A    between atoms: C_7  and  C_11
REMARK                            x       y       z     vdW  Elec       q    Type
REMARK                         _______ _______ _______ _____ _____    ______ ____
ROOT
ATOM      1  O   UNL     1      -9.602   3.950  -8.093  0.00  0.00    +0.000 OA
ATOM      2  C   UNL     1      -9.458   6.804  -5.961  0.00  0.00    +0.000 C 
ATOM      3  C   UNL     1      -9.061   5.705  -5.026  0.00  0.00    +0.000 C 
ATOM      4  C   UNL     1      -8.066   6.775  -5.390  0.00  0.00    +0.000 C 
ATOM      5  C   UNL     1      -9.072   4.384  -5.753  0.00  0.00    +0.000 C 
ATOM      6  C   UNL     1      -9.747   6.241  -7.320  0.00  0.00    +0.000 C 
ATOM      7  C   UNL     1      -9.486   4.752  -7.176  0.00  0.00    +0.000 C 
ATOM      8  H   UNL     1      -9.425   5.679  -4.009  0.00  0.00    +0.000 HD
ATOM      9  H   UNL     1      -7.243   6.516  -6.046  0.00  0.00    +0.000 HD
ATOM     10  H   UNL     1      -7.797   7.491  -4.622  0.00  0.00    +0.000 HD
ATOM     11  H   UNL     1      -8.063   3.959  -5.775  0.00  0.00    +0.000 HD
ATOM     12  H   UNL     1      -9.062   6.656  -8.065  0.00  0.00    +0.000 HD
ATOM     13  H   UNL     1     -10.778   6.372  -7.652  0.00  0.00    +0.000 HD
ENDROOT
BRANCH   5  14
ATOM     14  C   UNL     1     -10.066   3.405  -5.152  0.00  0.00    +0.000 C 
ATOM     15  H   UNL     1     -10.735   3.901  -4.439  0.00  0.00    +0.000 HD
ATOM     16  H   UNL     1     -10.689   2.953  -5.931  0.00  0.00    +0.000 HD
ATOM     17  H   UNL     1      -9.548   2.601  -4.620  0.00  0.00    +0.000 HD
ENDBRANCH   5  14
BRANCH   2  18
ATOM     18  C   UNL     1     -10.379   7.867  -5.473  0.00  0.00    +0.000 C 
ATOM     19  H   UNL     1     -10.059   8.208  -4.479  0.00  0.00    +0.000 HD
BRANCH  18  20
ATOM     20  C   UNL     1     -10.365   9.090  -6.399  0.00  0.00    +0.000 C 
ATOM     21  H   UNL     1     -11.293   9.178  -6.973  0.00  0.00    +0.000 HD
ATOM     22  H   UNL     1     -10.239  10.011  -5.821  0.00  0.00    +0.000 HD
ATOM     23  H   UNL     1      -9.537   9.024  -7.114  0.00  0.00    +0.000 HD
ENDBRANCH  18  20
BRANCH  18  24
ATOM     24  C   UNL     1     -11.813   7.342  -5.326  0.00  0.00    +0.000 C 
ATOM     25  H   UNL     1     -12.565   8.074  -5.634  0.00  0.00    +0.000 HD
ATOM     26  H   UNL     1     -12.017   7.092  -4.278  0.00  0.00    +0.000 HD
ATOM     27  H   UNL     1     -11.965   6.434  -5.918  0.00  0.00    +0.000 HD
ENDBRANCH  18  24
ENDBRANCH   2  18
TORSDOF 4
ENDMDL
MODEL 9
REMARK VINA RESULT:    -4.489     26.092     27.445
REMARK INTER + INTRA:          -5.347
REMARK INTER:                  -5.148
REMARK INTRA:                  -0.199
REMARK UNBOUND:                -0.201
REMARK  Name = 261491
REMARK  4 active torsions:
REMARK  status: ('A' for Active; 'I' for Inactive)
REMARK    1  A    between atoms: C_2  and  C_7
REMARK    2  A    between atoms: C_5  and  C_9
REMARK    3  A    between atoms: C_7  and  C_10
REMARK    4  A    between atoms: C_7  and  C_11
REMARK                            x       y       z     vdW  Elec       q    Type
REMARK                         _______ _______ _______ _____ _____    ______ ____
ROOT
ATOM      1  O   UNL     1     -21.917  -2.447   8.221  0.00  0.00    +0.000 OA
ATOM      2  C   UNL     1     -20.829  -2.887   4.854  0.00  0.00    +0.000 C 
ATOM      3  C   UNL     1     -22.178  -2.267   4.660  0.00  0.00    +0.000 C 
ATOM      4  C   UNL     1     -20.941  -1.516   4.242  0.00  0.00    +0.000 C 
ATOM      5  C   UNL     1     -22.820  -2.008   6.000  0.00  0.00    +0.000 C 
ATOM      6  C   UNL     1     -20.551  -3.059   6.316  0.00  0.00    +0.000 C 
ATOM      7  C   UNL     1     -21.781  -2.495   7.005  0.00  0.00    +0.000 C 
ATOM      8  H   UNL     1     -22.845  -2.613   3.884  0.00  0.00    +0.000 HD
ATOM      9  H   UNL     1     -20.631  -0.661   4.831  0.00  0.00    +0.000 HD
ATOM     10  H   UNL     1     -20.762  -1.398   3.180  0.00  0.00    +0.000 HD
ATOM     11  H   UNL     1     -22.975  -0.933   6.141  0.00  0.00    +0.000 HD
ATOM     12  H   UNL     1     -19.673  -2.478   6.614  0.00  0.00    +0.000 HD
ATOM     13  H   UNL     1     -20.432  -4.097   6.633  0.00  0.00    +0.000 HD
ENDROOT
BRANCH   5  14
ATOM     14  C   UNL     1     -24.120  -2.775   6.172  0.00  0.00    +0.000 C 
ATOM     15  H   UNL     1     -24.497  -2.699   7.199  0.00  0.00    +0.000 HD
ATOM     16  H   UNL     1     -24.896  -2.383   5.506  0.00  0.00    +0.000 HD
ATOM     17  H   UNL     1     -23.980  -3.836   5.946  0.00  0.00    +0.000 HD
ENDBRANCH   5  14
BRANCH   2  18
ATOM     18  C   UNL     1     -20.417  -4.005   3.962  0.00  0.00    +0.000 C 
ATOM     19  H   UNL     1     -19.946  -3.603   3.055  0.00  0.00    +0.000 HD
BRANCH  18  20
ATOM     20  C   UNL     1     -19.387  -4.915   4.644  0.00  0.00    +0.000 C 
ATOM     21  H   UNL     1     -19.312  -4.715   5.718  0.00  0.00    +0.000 HD
ATOM     22  H   UNL     1     -19.658  -5.968   4.517  0.00  0.00    +0.000 HD
ATOM     23  H   UNL     1     -18.393  -4.767   4.209  0.00  0.00    +0.000 HD
ENDBRANCH  18  20
BRANCH  18  24
ATOM     24  C   UNL     1     -21.625  -4.835   3.509  0.00  0.00    +0.000 C 
ATOM     25  H   UNL     1     -22.502  -4.221   3.287  0.00  0.00    +0.000 HD
ATOM     26  H   UNL     1     -21.916  -5.538   4.299  0.00  0.00    +0.000 HD
ATOM     27  H   UNL     1     -21.390  -5.422   2.616  0.00  0.00    +0.000 HD
ENDBRANCH  18  24
ENDBRANCH   2  18
TORSDOF 4
ENDMDL
MODEL 10
REMARK VINA RESULT:    -4.442     16.883     18.287
REMARK INTER + INTRA:          -5.293
REMARK INTER:                  -5.092
REMARK INTRA:                  -0.201
REMARK UNBOUND:                -0.201
REMARK  Name = 261491
REMARK  4 active torsions:
REMARK  status: ('A' for Active; 'I' for Inactive)
REMARK    1  A    between atoms: C_2  and  C_7
REMARK    2  A    between atoms: C_5  and  C_9
REMARK    3  A    between atoms: C_7  and  C_10
REMARK    4  A    between atoms: C_7  and  C_11
REMARK                            x       y       z     vdW  Elec       q    Type
REMARK                         _______ _______ _______ _____ _____    ______ ____
ROOT
ATOM      1  O   UNL     1      -7.642  15.415   4.528  0.00  0.00    +0.000 OA
ATOM      2  C   UNL     1      -7.716  12.023   5.626  0.00  0.00    +0.000 C 
ATOM      3  C   UNL     1      -8.657  11.988   4.462  0.00  0.00    +0.000 C 
ATOM      4  C   UNL     1      -7.360  11.225   4.400  0.00  0.00    +0.000 C 
ATOM      5  C   UNL     1      -8.772  13.363   3.854  0.00  0.00    +0.000 C 
ATOM      6  C   UNL     1      -7.194  13.414   5.819  0.00  0.00    +0.000 C 
ATOM      7  C   UNL     1      -7.841  14.220   4.707  0.00  0.00    +0.000 C 
ATOM      8  H   UNL     1      -9.575  11.420   4.504  0.00  0.00    +0.000 HD
ATOM      9  H   UNL     1      -6.573  11.594   3.754  0.00  0.00    +0.000 HD
ATOM     10  H   UNL     1      -7.413  10.144   4.443  0.00  0.00    +0.000 HD
ATOM     11  H   UNL     1      -8.399  13.350   2.824  0.00  0.00    +0.000 HD
ATOM     12  H   UNL     1      -6.107  13.441   5.697  0.00  0.00    +0.000 HD
ATOM     13  H   UNL     1      -7.469  13.870   6.772  0.00  0.00    +0.000 HD
ENDROOT
BRANCH   5  14
ATOM     14  C   UNL     1     -10.191  13.903   3.916  0.00  0.00    +0.000 C 
ATOM     15  H   UNL     1     -10.649  13.711   4.893  0.00  0.00    +0.000 HD
ATOM     16  H   UNL     1     -10.204  14.985   3.750  0.00  0.00    +0.000 HD
ATOM     17  H   UNL     1     -10.820  13.433   3.154  0.00  0.00    +0.000 HD
ENDBRANCH   5  14
BRANCH   2  18
ATOM     18  C   UNL     1      -8.068  11.267   6.859  0.00  0.00    +0.000 C 
ATOM     19  H   UNL     1      -7.411  10.393   6.959  0.00  0.00    +0.000 HD
BRANCH  18  20
ATOM     20  C   UNL     1      -7.877  12.126   8.116  0.00  0.00    +0.000 C 
ATOM     21  H   UNL     1      -8.125  13.177   7.935  0.00  0.00    +0.000 HD
ATOM     22  H   UNL     1      -8.515  11.766   8.930  0.00  0.00    +0.000 HD
ATOM     23  H   UNL     1      -6.837  12.084   8.458  0.00  0.00    +0.000 HD
ENDBRANCH  18  20
BRANCH  18  24
ATOM     24  C   UNL     1      -9.508  10.742   6.802  0.00  0.00    +0.000 C 
ATOM     25  H   UNL     1     -10.134  11.133   7.609  0.00  0.00    +0.000 HD
ATOM     26  H   UNL     1      -9.513   9.649   6.892  0.00  0.00    +0.000 HD
ATOM     27  H   UNL     1      -9.986  10.997   5.852  0.00  0.00    +0.000 HD
ENDBRANCH  18  24
ENDBRANCH   2  18
TORSDOF 4
ENDMDL
