MODEL 1
REMARK VINA RESULT:    -4.697      0.000      0.000
REMARK INTER + INTRA:          -5.137
REMARK INTER:                  -5.107
REMARK INTRA:                  -0.030
REMARK UNBOUND:                -0.028
REMARK  Name = 7519
REMARK  2 active torsions:
REMARK  status: ('A' for Active; 'I' for Inactive)
REMARK    1  A    between atoms: O_1  and  C_2
REMARK    2  A    between atoms: O_1  and  C_8
REMARK                            x       y       z     vdW  Elec       q    Type
REMARK                         _______ _______ _______ _____ _____    ______ ____
ROOT
ATOM      1  C   UNL     1      -1.862   9.042 -10.384  0.00  0.00    +0.000 A 
ATOM      2  C   UNL     1      -2.422   9.259  -9.126  0.00  0.00    +0.000 A 
ATOM      3  C   UNL     1      -2.041   7.816 -11.025  0.00  0.00    +0.000 A 
ATOM      4  C   UNL     1      -3.161   8.250  -8.508  0.00  0.00    +0.000 A 
ATOM      5  C   UNL     1      -2.780   6.807 -10.408  0.00  0.00    +0.000 A 
ATOM      6  C   UNL     1      -3.340   7.023  -9.150  0.00  0.00    +0.000 A 
ATOM      7  H   UNL     1      -2.322  10.186  -8.572  0.00  0.00    +0.000 HD
ATOM      8  H   UNL     1      -1.606   7.641 -12.007  0.00  0.00    +0.000 HD
ATOM      9  H   UNL     1      -3.598   8.417  -7.528  0.00  0.00    +0.000 HD
ATOM     10  H   UNL     1      -2.919   5.852 -10.907  0.00  0.00    +0.000 HD
ATOM     11  H   UNL     1      -3.915   6.239  -8.668  0.00  0.00    +0.000 HD
ENDROOT
BRANCH   1  12
ATOM     12  O   UNL     1      -1.141  10.026 -10.987  0.00  0.00    +0.000 OA
BRANCH  12  13
ATOM     13  C   UNL     1      -0.773   9.821 -12.350  0.00  0.00    +0.000 C 
ATOM     14  H   UNL     1      -0.428   8.795 -12.523  0.00  0.00    +0.000 HD
ATOM     15  H   UNL     1      -0.046  10.566 -12.688  0.00  0.00    +0.000 HD
ATOM     16  H   UNL     1      -1.677   9.959 -12.953  0.00  0.00    +0.000 HD
ENDBRANCH  12  13
ENDBRANCH   1  12
TORSDOF 2
ENDMDL
MODEL 2
REMARK VINA RESULT:    -4.166     13.194     14.052
REMARK INTER + INTRA:          -4.559
REMARK INTER:                  -4.529
REMARK INTRA:                  -0.030
REMARK UNBOUND:                -0.028
REMARK  Name = 7519
REMARK  2 active torsions:
REMARK  status: ('A' for Active; 'I' for Inactive)
REMARK    1  A    between atoms: O_1  and  C_2
REMARK    2  A    between atoms: O_1  and  C_8
REMARK                            x       y       z     vdW  Elec       q    Type
REMARK                         _______ _______ _______ _____ _____    ______ ____
ROOT
ATOM      1  C   UNL     1       4.121   9.732   1.715  0.00  0.00    +0.000 A 
ATOM      2  C   UNL     1       5.248   9.525   0.919  0.00  0.00    +0.000 A 
ATOM      3  C   UNL     1       3.936   8.976   2.872  0.00  0.00    +0.000 A 
ATOM      4  C   UNL     1       6.190   8.562   1.281  0.00  0.00    +0.000 A 
ATOM      5  C   UNL     1       4.877   8.012   3.234  0.00  0.00    +0.000 A 
ATOM      6  C   UNL     1       6.004   7.805   2.439  0.00  0.00    +0.000 A 
ATOM      7  H   UNL     1       5.454  10.077   0.008  0.00  0.00    +0.000 HD
ATOM      8  H   UNL     1       3.060   9.132   3.496  0.00  0.00    +0.000 HD
ATOM      9  H   UNL     1       7.068   8.400   0.663  0.00  0.00    +0.000 HD
ATOM     10  H   UNL     1       4.734   7.423   4.135  0.00  0.00    +0.000 HD
ATOM     11  H   UNL     1       6.738   7.055   2.720  0.00  0.00    +0.000 HD
ENDROOT
BRANCH   1  12
ATOM     12  O   UNL     1       3.202  10.672   1.362  0.00  0.00    +0.000 OA
BRANCH  12  13
ATOM     13  C   UNL     1       3.583  11.605   0.352  0.00  0.00    +0.000 C 
ATOM     14  H   UNL     1       4.563  11.361  -0.072  0.00  0.00    +0.000 HD
ATOM     15  H   UNL     1       3.533  12.636   0.718  0.00  0.00    +0.000 HD
ATOM     16  H   UNL     1       2.853  11.518  -0.460  0.00  0.00    +0.000 HD
ENDBRANCH  12  13
ENDBRANCH   1  12
TORSDOF 2
ENDMDL
MODEL 3
REMARK VINA RESULT:    -4.158     25.962     26.918
REMARK INTER + INTRA:          -4.551
REMARK INTER:                  -4.527
REMARK INTRA:                  -0.024
REMARK UNBOUND:                -0.028
REMARK  Name = 7519
REMARK  2 active torsions:
REMARK  status: ('A' for Active; 'I' for Inactive)
REMARK    1  A    between atoms: O_1  and  C_2
REMARK    2  A    between atoms: O_1  and  C_8
REMARK                            x       y       z     vdW  Elec       q    Type
REMARK                         _______ _______ _______ _____ _____    ______ ____
ROOT
ATOM      1  C   UNL     1     -21.092  -2.969   5.483  0.00  0.00    +0.000 A 
ATOM      2  C   UNL     1     -21.031  -1.984   4.498  0.00  0.00    +0.000 A 
ATOM      3  C   UNL     1     -20.829  -2.643   6.814  0.00  0.00    +0.000 A 
ATOM      4  C   UNL     1     -20.707  -0.671   4.844  0.00  0.00    +0.000 A 
ATOM      5  C   UNL     1     -20.506  -1.331   7.160  0.00  0.00    +0.000 A 
ATOM      6  C   UNL     1     -20.445  -0.345   6.175  0.00  0.00    +0.000 A 
ATOM      7  H   UNL     1     -21.223  -2.168   3.447  0.00  0.00    +0.000 HD
ATOM      8  H   UNL     1     -20.875  -3.407   7.586  0.00  0.00    +0.000 HD
ATOM      9  H   UNL     1     -20.659   0.097   4.079  0.00  0.00    +0.000 HD
ATOM     10  H   UNL     1     -20.301  -1.077   8.196  0.00  0.00    +0.000 HD
ATOM     11  H   UNL     1     -20.193   0.676   6.444  0.00  0.00    +0.000 HD
ENDROOT
BRANCH   1  12
ATOM     12  O   UNL     1     -21.408  -4.250   5.146  0.00  0.00    +0.000 OA
BRANCH  12  13
ATOM     13  C   UNL     1     -20.744  -4.805   4.012  0.00  0.00    +0.000 C 
ATOM     14  H   UNL     1     -20.178  -5.705   4.278  0.00  0.00    +0.000 HD
ATOM     15  H   UNL     1     -20.124  -4.060   3.504  0.00  0.00    +0.000 HD
ATOM     16  H   UNL     1     -21.519  -5.114   3.303  0.00  0.00    +0.000 HD
ENDBRANCH  12  13
ENDBRANCH   1  12
TORSDOF 2
ENDMDL
MODEL 4
REMARK VINA RESULT:    -4.132     16.673     18.152
REMARK INTER + INTRA:          -4.522
REMARK INTER:                  -4.495
REMARK INTRA:                  -0.027
REMARK UNBOUND:                -0.028
REMARK  Name = 7519
REMARK  2 active torsions:
REMARK  status: ('A' for Active; 'I' for Inactive)
REMARK    1  A    between atoms: O_1  and  C_2
REMARK    2  A    between atoms: O_1  and  C_8
REMARK                            x       y       z     vdW  Elec       q    Type
REMARK                         _______ _______ _______ _____ _____    ______ ____
ROOT
ATOM      1  C   UNL     1      -8.250  11.500   6.879  0.00  0.00    +0.000 A 
ATOM      2  C   UNL     1      -7.606  12.684   7.236  0.00  0.00    +0.000 A 
ATOM      3  C   UNL     1      -8.123  11.000   5.583  0.00  0.00    +0.000 A 
ATOM      4  C   UNL     1      -6.835  13.369   6.296  0.00  0.00    +0.000 A 
ATOM      5  C   UNL     1      -7.352  11.684   4.643  0.00  0.00    +0.000 A 
ATOM      6  C   UNL     1      -6.708  12.868   5.000  0.00  0.00    +0.000 A 
ATOM      7  H   UNL     1      -7.662  13.129   8.224  0.00  0.00    +0.000 HD
ATOM      8  H   UNL     1      -8.623  10.077   5.299  0.00  0.00    +0.000 HD
ATOM      9  H   UNL     1      -6.333  14.291   6.572  0.00  0.00    +0.000 HD
ATOM     10  H   UNL     1      -7.253  11.295   3.634  0.00  0.00    +0.000 HD
ATOM     11  H   UNL     1      -6.108  13.402   4.269  0.00  0.00    +0.000 HD
ENDROOT
BRANCH   1  12
ATOM     12  O   UNL     1      -9.003  10.832   7.796  0.00  0.00    +0.000 OA
BRANCH  12  13
ATOM     13  C   UNL     1      -9.014   9.407   7.713  0.00  0.00    +0.000 C 
ATOM     14  H   UNL     1      -8.175   8.966   8.262  0.00  0.00    +0.000 HD
ATOM     15  H   UNL     1      -9.057   9.065   6.674  0.00  0.00    +0.000 HD
ATOM     16  H   UNL     1      -9.931   9.063   8.203  0.00  0.00    +0.000 HD
ENDBRANCH  12  13
ENDBRANCH   1  12
TORSDOF 2
ENDMDL
MODEL 5
REMARK VINA RESULT:    -4.118     12.536     13.385
REMARK INTER + INTRA:          -4.507
REMARK INTER:                  -4.488
REMARK INTRA:                  -0.020
REMARK UNBOUND:                -0.028
REMARK  Name = 7519
REMARK  2 active torsions:
REMARK  status: ('A' for Active; 'I' for Inactive)
REMARK    1  A    between atoms: O_1  and  C_2
REMARK    2  A    between atoms: O_1  and  C_8
REMARK                            x       y       z     vdW  Elec       q    Type
REMARK                         _______ _______ _______ _____ _____    ______ ____
ROOT
ATOM      1  C   UNL     1       5.432  11.099   0.233  0.00  0.00    +0.000 A 
ATOM      2  C   UNL     1       6.537  11.527  -0.502  0.00  0.00    +0.000 A 
ATOM      3  C   UNL     1       5.292   9.750   0.559  0.00  0.00    +0.000 A 
ATOM      4  C   UNL     1       7.502  10.606  -0.912  0.00  0.00    +0.000 A 
ATOM      5  C   UNL     1       6.256   8.829   0.151  0.00  0.00    +0.000 A 
ATOM      6  C   UNL     1       7.361   9.257  -0.585  0.00  0.00    +0.000 A 
ATOM      7  H   UNL     1       6.708  12.559  -0.790  0.00  0.00    +0.000 HD
ATOM      8  H   UNL     1       4.432   9.410   1.133  0.00  0.00    +0.000 HD
ATOM      9  H   UNL     1       8.363  10.938  -1.484  0.00  0.00    +0.000 HD
ATOM     10  H   UNL     1       6.147   7.779   0.405  0.00  0.00    +0.000 HD
ATOM     11  H   UNL     1       8.113   8.541  -0.903  0.00  0.00    +0.000 HD
ENDROOT
BRANCH   1  12
ATOM     12  O   UNL     1       4.490  11.997   0.632  0.00  0.00    +0.000 OA
BRANCH  12  13
ATOM     13  C   UNL     1       3.188  11.868   0.065  0.00  0.00    +0.000 C 
ATOM     14  H   UNL     1       2.483  11.418   0.773  0.00  0.00    +0.000 HD
ATOM     15  H   UNL     1       3.216  11.332  -0.890  0.00  0.00    +0.000 HD
ATOM     16  H   UNL     1       2.825  12.879  -0.146  0.00  0.00    +0.000 HD
ENDBRANCH  12  13
ENDBRANCH   1  12
TORSDOF 2
ENDMDL
MODEL 6
REMARK VINA RESULT:    -3.995     12.845     13.455
REMARK INTER + INTRA:          -4.374
REMARK INTER:                  -4.344
REMARK INTRA:                  -0.030
REMARK UNBOUND:                -0.028
REMARK  Name = 7519
REMARK  2 active torsions:
REMARK  status: ('A' for Active; 'I' for Inactive)
REMARK    1  A    between atoms: O_1  and  C_2
REMARK    2  A    between atoms: O_1  and  C_8
REMARK                            x       y       z     vdW  Elec       q    Type
REMARK                         _______ _______ _______ _____ _____    ______ ____
ROOT
ATOM      1  C   UNL     1       5.839  10.751  -0.132  0.00  0.00    +0.000 A 
ATOM      2  C   UNL     1       5.746   9.442   0.339  0.00  0.00    +0.000 A 
ATOM      3  C   UNL     1       6.909  11.126  -0.944  0.00  0.00    +0.000 A 
ATOM      4  C   UNL     1       6.725   8.507  -0.002  0.00  0.00    +0.000 A 
ATOM      5  C   UNL     1       7.888  10.193  -1.285  0.00  0.00    +0.000 A 
ATOM      6  C   UNL     1       7.795   8.883  -0.814  0.00  0.00    +0.000 A 
ATOM      7  H   UNL     1       4.942   9.083   0.973  0.00  0.00    +0.000 HD
ATOM      8  H   UNL     1       6.987  12.146  -1.314  0.00  0.00    +0.000 HD
ATOM      9  H   UNL     1       6.654   7.488   0.365  0.00  0.00    +0.000 HD
ATOM     10  H   UNL     1       8.721  10.484  -1.916  0.00  0.00    +0.000 HD
ATOM     11  H   UNL     1       8.556   8.155  -1.078  0.00  0.00    +0.000 HD
ENDROOT
BRANCH   1  12
ATOM     12  O   UNL     1       4.884  11.663   0.200  0.00  0.00    +0.000 OA
BRANCH  12  13
ATOM     13  C   UNL     1       3.656  11.158   0.720  0.00  0.00    +0.000 C 
ATOM     14  H   UNL     1       2.807  11.786   0.430  0.00  0.00    +0.000 HD
ATOM     15  H   UNL     1       3.710  11.008   1.803  0.00  0.00    +0.000 HD
ATOM     16  H   UNL     1       3.494  10.174   0.268  0.00  0.00    +0.000 HD
ENDBRANCH  12  13
ENDBRANCH   1  12
TORSDOF 2
ENDMDL
MODEL 7
REMARK VINA RESULT:    -3.994     25.932     26.892
REMARK INTER + INTRA:          -4.373
REMARK INTER:                  -4.352
REMARK INTRA:                  -0.021
REMARK UNBOUND:                -0.028
REMARK  Name = 7519
REMARK  2 active torsions:
REMARK  status: ('A' for Active; 'I' for Inactive)
REMARK    1  A    between atoms: O_1  and  C_2
REMARK    2  A    between atoms: O_1  and  C_8
REMARK                            x       y       z     vdW  Elec       q    Type
REMARK                         _______ _______ _______ _____ _____    ______ ____
ROOT
ATOM      1  C   UNL     1     -20.643  -1.899   6.290  0.00  0.00    +0.000 A 
ATOM      2  C   UNL     1     -20.843  -1.036   5.213  0.00  0.00    +0.000 A 
ATOM      3  C   UNL     1     -20.636  -3.279   6.086  0.00  0.00    +0.000 A 
ATOM      4  C   UNL     1     -21.036  -1.552   3.931  0.00  0.00    +0.000 A 
ATOM      5  C   UNL     1     -20.829  -3.796   4.805  0.00  0.00    +0.000 A 
ATOM      6  C   UNL     1     -21.028  -2.933   3.728  0.00  0.00    +0.000 A 
ATOM      7  H   UNL     1     -20.860   0.045   5.301  0.00  0.00    +0.000 HD
ATOM      8  H   UNL     1     -20.481  -3.957   6.922  0.00  0.00    +0.000 HD
ATOM      9  H   UNL     1     -21.191  -0.881   3.092  0.00  0.00    +0.000 HD
ATOM     10  H   UNL     1     -20.823  -4.870   4.645  0.00  0.00    +0.000 HD
ATOM     11  H   UNL     1     -21.178  -3.334   2.730  0.00  0.00    +0.000 HD
ENDROOT
BRANCH   1  12
ATOM     12  O   UNL     1     -20.455  -1.395   7.541  0.00  0.00    +0.000 OA
BRANCH  12  13
ATOM     13  C   UNL     1     -21.520  -0.626   8.098  0.00  0.00    +0.000 C 
ATOM     14  H   UNL     1     -21.255   0.435   8.167  0.00  0.00    +0.000 HD
ATOM     15  H   UNL     1     -21.852  -1.035   9.057  0.00  0.00    +0.000 HD
ATOM     16  H   UNL     1     -22.367  -0.698   7.407  0.00  0.00    +0.000 HD
ENDBRANCH  12  13
ENDBRANCH   1  12
TORSDOF 2
ENDMDL
MODEL 8
REMARK VINA RESULT:    -3.954      9.053      9.874
REMARK INTER + INTRA:          -4.329
REMARK INTER:                  -4.308
REMARK INTRA:                  -0.021
REMARK UNBOUND:                -0.028
REMARK  Name = 7519
REMARK  2 active torsions:
REMARK  status: ('A' for Active; 'I' for Inactive)
REMARK    1  A    between atoms: O_1  and  C_2
REMARK    2  A    between atoms: O_1  and  C_8
REMARK                            x       y       z     vdW  Elec       q    Type
REMARK                         _______ _______ _______ _____ _____    ______ ____
ROOT
ATOM      1  C   UNL     1     -10.257   5.893  -5.634  0.00  0.00    +0.000 A 
ATOM      2  C   UNL     1      -8.957   6.197  -5.230  0.00  0.00    +0.000 A 
ATOM      3  C   UNL     1     -10.722   4.581  -5.558  0.00  0.00    +0.000 A 
ATOM      4  C   UNL     1      -8.122   5.187  -4.750  0.00  0.00    +0.000 A 
ATOM      5  C   UNL     1      -9.888   3.571  -5.078  0.00  0.00    +0.000 A 
ATOM      6  C   UNL     1      -8.588   3.874  -4.675  0.00  0.00    +0.000 A 
ATOM      7  H   UNL     1      -8.531   7.194  -5.262  0.00  0.00    +0.000 HD
ATOM      8  H   UNL     1     -11.735   4.338  -5.872  0.00  0.00    +0.000 HD
ATOM      9  H   UNL     1      -7.110   5.422  -4.435  0.00  0.00    +0.000 HD
ATOM     10  H   UNL     1     -10.250   2.549  -5.019  0.00  0.00    +0.000 HD
ATOM     11  H   UNL     1      -7.938   3.089  -4.301  0.00  0.00    +0.000 HD
ENDROOT
BRANCH   1  12
ATOM     12  O   UNL     1     -11.071   6.878  -6.102  0.00  0.00    +0.000 OA
BRANCH  12  13
ATOM     13  C   UNL     1     -11.367   7.954  -5.213  0.00  0.00    +0.000 C 
ATOM     14  H   UNL     1     -12.328   8.423  -5.454  0.00  0.00    +0.000 HD
ATOM     15  H   UNL     1     -10.549   8.680  -5.174  0.00  0.00    +0.000 HD
ATOM     16  H   UNL     1     -11.464   7.526  -4.210  0.00  0.00    +0.000 HD
ENDBRANCH  12  13
ENDBRANCH   1  12
TORSDOF 2
ENDMDL
MODEL 9
REMARK VINA RESULT:    -3.873     12.771     13.272
REMARK INTER + INTRA:          -4.241
REMARK INTER:                  -4.217
REMARK INTRA:                  -0.025
REMARK UNBOUND:                -0.028
REMARK  Name = 7519
REMARK  2 active torsions:
REMARK  status: ('A' for Active; 'I' for Inactive)
REMARK    1  A    between atoms: O_1  and  C_2
REMARK    2  A    between atoms: O_1  and  C_8
REMARK                            x       y       z     vdW  Elec       q    Type
REMARK                         _______ _______ _______ _____ _____    ______ ____
ROOT
ATOM      1  C   UNL     1       5.945   9.766  -0.095  0.00  0.00    +0.000 A 
ATOM      2  C   UNL     1       4.834   9.067   0.378  0.00  0.00    +0.000 A 
ATOM      3  C   UNL     1       5.913  11.159  -0.166  0.00  0.00    +0.000 A 
ATOM      4  C   UNL     1       3.692   9.760   0.779  0.00  0.00    +0.000 A 
ATOM      5  C   UNL     1       4.771  11.853   0.234  0.00  0.00    +0.000 A 
ATOM      6  C   UNL     1       3.660  11.154   0.707  0.00  0.00    +0.000 A 
ATOM      7  H   UNL     1       4.791   7.986   0.460  0.00  0.00    +0.000 HD
ATOM      8  H   UNL     1       6.775  11.710  -0.534  0.00  0.00    +0.000 HD
ATOM      9  H   UNL     1       2.827   9.217   1.147  0.00  0.00    +0.000 HD
ATOM     10  H   UNL     1       4.746  12.937   0.179  0.00  0.00    +0.000 HD
ATOM     11  H   UNL     1       2.771  11.693   1.019  0.00  0.00    +0.000 HD
ENDROOT
BRANCH   1  12
ATOM     12  O   UNL     1       7.059   9.090  -0.486  0.00  0.00    +0.000 OA
BRANCH  12  13
ATOM     13  C   UNL     1       8.318   9.612  -0.062  0.00  0.00    +0.000 C 
ATOM     14  H   UNL     1       8.749   9.013   0.748  0.00  0.00    +0.000 HD
ATOM     15  H   UNL     1       8.246  10.672   0.199  0.00  0.00    +0.000 HD
ATOM     16  H   UNL     1       9.002   9.536  -0.914  0.00  0.00    +0.000 HD
ENDBRANCH  12  13
ENDBRANCH   1  12
TORSDOF 2
ENDMDL
MODEL 10
REMARK VINA RESULT:    -3.818     13.214     13.947
REMARK INTER + INTRA:          -4.181
REMARK INTER:                  -4.153
REMARK INTRA:                  -0.028
REMARK UNBOUND:                -0.028
REMARK  Name = 7519
REMARK  2 active torsions:
REMARK  status: ('A' for Active; 'I' for Inactive)
REMARK    1  A    between atoms: O_1  and  C_2
REMARK    2  A    between atoms: O_1  and  C_8
REMARK                            x       y       z     vdW  Elec       q    Type
REMARK                         _______ _______ _______ _____ _____    ______ ____
ROOT
ATOM      1  C   UNL     1       5.848   8.610   1.306  0.00  0.00    +0.000 A 
ATOM      2  C   UNL     1       5.580   8.253   2.628  0.00  0.00    +0.000 A 
ATOM      3  C   UNL     1       4.901   9.322   0.571  0.00  0.00    +0.000 A 
ATOM      4  C   UNL     1       4.365   8.608   3.214  0.00  0.00    +0.000 A 
ATOM      5  C   UNL     1       3.686   9.678   1.156  0.00  0.00    +0.000 A 
ATOM      6  C   UNL     1       3.418   9.321   2.478  0.00  0.00    +0.000 A 
ATOM      7  H   UNL     1       6.271   7.700   3.256  0.00  0.00    +0.000 HD
ATOM      8  H   UNL     1       5.104   9.604  -0.460  0.00  0.00    +0.000 HD
ATOM      9  H   UNL     1       4.156   8.331   4.242  0.00  0.00    +0.000 HD
ATOM     10  H   UNL     1       2.948  10.232   0.584  0.00  0.00    +0.000 HD
ATOM     11  H   UNL     1       2.472   9.597   2.935  0.00  0.00    +0.000 HD
ENDROOT
BRANCH   1  12
ATOM     12  O   UNL     1       7.034   8.264   0.735  0.00  0.00    +0.000 OA
BRANCH  12  13
ATOM     13  C   UNL     1       7.057   8.138  -0.686  0.00  0.00    +0.000 C 
ATOM     14  H   UNL     1       7.953   7.608  -1.028  0.00  0.00    +0.000 HD
ATOM     15  H   UNL     1       6.936   9.108  -1.178  0.00  0.00    +0.000 HD
ATOM     16  H   UNL     1       6.196   7.524  -0.971  0.00  0.00    +0.000 HD
ENDBRANCH  12  13
ENDBRANCH   1  12
TORSDOF 2
ENDMDL
