MODEL 1
REMARK VINA RESULT:    -5.414      0.000      0.000
REMARK INTER + INTRA:          -5.414
REMARK INTER:                  -5.414
REMARK INTRA:                   0.000
REMARK UNBOUND:                 0.000
REMARK  Name = 7222
REMARK  0 active torsions:
REMARK  status: ('A' for Active; 'I' for Inactive)
REMARK                            x       y       z     vdW  Elec       q    Type
REMARK                         _______ _______ _______ _____ _____    ______ ____
ROOT
ATOM      1  S   UNL     1      -1.219   7.760 -12.513  0.00  0.00    +0.000 S 
ATOM      2  N   UNL     1      -1.005   9.887 -11.070  0.00  0.00    +0.000 NA
ATOM      3  C   UNL     1      -2.044   7.779 -10.999  0.00  0.00    +0.000 A 
ATOM      4  C   UNL     1      -1.811   9.005 -10.367  0.00  0.00    +0.000 A 
ATOM      5  C   UNL     1      -2.840   6.782 -10.412  0.00  0.00    +0.000 A 
ATOM      6  C   UNL     1      -2.396   9.237  -9.104  0.00  0.00    +0.000 A 
ATOM      7  C   UNL     1      -3.408   7.037  -9.162  0.00  0.00    +0.000 A 
ATOM      8  C   UNL     1      -3.190   8.249  -8.513  0.00  0.00    +0.000 A 
ATOM      9  C   UNL     1      -0.639   9.340 -12.206  0.00  0.00    +0.000 A 
ATOM     10  H   UNL     1      -3.014   5.835 -10.913  0.00  0.00    +0.000 HD
ATOM     11  H   UNL     1      -2.233  10.179  -8.588  0.00  0.00    +0.000 HD
ATOM     12  H   UNL     1      -4.027   6.279  -8.690  0.00  0.00    +0.000 HD
ATOM     13  H   UNL     1      -3.639   8.430  -7.541  0.00  0.00    +0.000 HD
ATOM     14  H   UNL     1      -0.005   9.855 -12.913  0.00  0.00    +0.000 HD
ENDROOT
TORSDOF 0
ENDMDL
MODEL 2
REMARK VINA RESULT:    -5.149      1.406      2.112
REMARK INTER + INTRA:          -5.149
REMARK INTER:                  -5.149
REMARK INTRA:                   0.000
REMARK UNBOUND:                 0.000
REMARK  Name = 7222
REMARK  0 active torsions:
REMARK  status: ('A' for Active; 'I' for Inactive)
REMARK                            x       y       z     vdW  Elec       q    Type
REMARK                         _______ _______ _______ _____ _____    ______ ____
ROOT
ATOM      1  S   UNL     1      -0.769   9.436 -12.197  0.00  0.00    +0.000 S 
ATOM      2  N   UNL     1      -1.572   6.988 -12.301  0.00  0.00    +0.000 NA
ATOM      3  C   UNL     1      -1.725   8.858 -10.884  0.00  0.00    +0.000 A 
ATOM      4  C   UNL     1      -2.062   7.521 -11.118  0.00  0.00    +0.000 A 
ATOM      5  C   UNL     1      -2.146   9.537  -9.730  0.00  0.00    +0.000 A 
ATOM      6  C   UNL     1      -2.848   6.843 -10.162  0.00  0.00    +0.000 A 
ATOM      7  C   UNL     1      -2.923   8.844  -8.799  0.00  0.00    +0.000 A 
ATOM      8  C   UNL     1      -3.271   7.513  -9.010  0.00  0.00    +0.000 A 
ATOM      9  C   UNL     1      -0.882   7.901 -12.944  0.00  0.00    +0.000 A 
ATOM     10  H   UNL     1      -1.878  10.576  -9.559  0.00  0.00    +0.000 HD
ATOM     11  H   UNL     1      -3.125   5.805 -10.316  0.00  0.00    +0.000 HD
ATOM     12  H   UNL     1      -3.260   9.351  -7.899  0.00  0.00    +0.000 HD
ATOM     13  H   UNL     1      -3.876   6.990  -8.275  0.00  0.00    +0.000 HD
ATOM     14  H   UNL     1      -0.409   7.700 -13.894  0.00  0.00    +0.000 HD
ENDROOT
TORSDOF 0
ENDMDL
MODEL 3
REMARK VINA RESULT:    -4.723      1.669      3.203
REMARK INTER + INTRA:          -4.723
REMARK INTER:                  -4.723
REMARK INTRA:                   0.000
REMARK UNBOUND:                 0.000
REMARK  Name = 7222
REMARK  0 active torsions:
REMARK  status: ('A' for Active; 'I' for Inactive)
REMARK                            x       y       z     vdW  Elec       q    Type
REMARK                         _______ _______ _______ _____ _____    ______ ____
ROOT
ATOM      1  S   UNL     1      -3.201   6.933  -9.555  0.00  0.00    +0.000 S 
ATOM      2  N   UNL     1      -2.431   9.341  -9.046  0.00  0.00    +0.000 NA
ATOM      3  C   UNL     1      -2.162   7.693 -10.702  0.00  0.00    +0.000 A 
ATOM      4  C   UNL     1      -1.855   8.983 -10.256  0.00  0.00    +0.000 A 
ATOM      5  C   UNL     1      -1.655   7.186 -11.909  0.00  0.00    +0.000 A 
ATOM      6  C   UNL     1      -1.011   9.790 -11.048  0.00  0.00    +0.000 A 
ATOM      7  C   UNL     1      -0.822   8.006 -12.674  0.00  0.00    +0.000 A 
ATOM      8  C   UNL     1      -0.502   9.292 -12.252  0.00  0.00    +0.000 A 
ATOM      9  C   UNL     1      -3.155   8.346  -8.591  0.00  0.00    +0.000 A 
ATOM     10  H   UNL     1      -1.900   6.183 -12.245  0.00  0.00    +0.000 HD
ATOM     11  H   UNL     1      -0.755  10.796 -10.728  0.00  0.00    +0.000 HD
ATOM     12  H   UNL     1      -0.419   7.633 -13.612  0.00  0.00    +0.000 HD
ATOM     13  H   UNL     1       0.147   9.915 -12.860  0.00  0.00    +0.000 HD
ATOM     14  H   UNL     1      -3.695   8.409  -7.657  0.00  0.00    +0.000 HD
ENDROOT
TORSDOF 0
ENDMDL
MODEL 4
REMARK VINA RESULT:    -4.253      2.122      2.800
REMARK INTER + INTRA:          -4.253
REMARK INTER:                  -4.253
REMARK INTRA:                   0.000
REMARK UNBOUND:                 0.000
REMARK  Name = 7222
REMARK  0 active torsions:
REMARK  status: ('A' for Active; 'I' for Inactive)
REMARK                            x       y       z     vdW  Elec       q    Type
REMARK                         _______ _______ _______ _____ _____    ______ ____
ROOT
ATOM      1  S   UNL     1      -3.691   8.928 -12.888  0.00  0.00    +0.000 S 
ATOM      2  N   UNL     1      -3.663   6.620 -11.738  0.00  0.00    +0.000 NA
ATOM      3  C   UNL     1      -3.352   8.887 -11.198  0.00  0.00    +0.000 A 
ATOM      4  C   UNL     1      -3.381   7.560 -10.758  0.00  0.00    +0.000 A 
ATOM      5  C   UNL     1      -3.080   9.952 -10.324  0.00  0.00    +0.000 A 
ATOM      6  C   UNL     1      -3.128   7.293  -9.395  0.00  0.00    +0.000 A 
ATOM      7  C   UNL     1      -2.833   9.661  -8.981  0.00  0.00    +0.000 A 
ATOM      8  C   UNL     1      -2.856   8.348  -8.519  0.00  0.00    +0.000 A 
ATOM      9  C   UNL     1      -3.843   7.224 -12.889  0.00  0.00    +0.000 A 
ATOM     10  H   UNL     1      -3.060  10.979 -10.677  0.00  0.00    +0.000 HD
ATOM     11  H   UNL     1      -3.143   6.272  -9.024  0.00  0.00    +0.000 HD
ATOM     12  H   UNL     1      -2.620  10.470  -8.287  0.00  0.00    +0.000 HD
ATOM     13  H   UNL     1      -2.662   8.140  -7.471  0.00  0.00    +0.000 HD
ATOM     14  H   UNL     1      -4.075   6.679 -13.793  0.00  0.00    +0.000 HD
ENDROOT
TORSDOF 0
ENDMDL
MODEL 5
REMARK VINA RESULT:    -4.231     27.446     28.715
REMARK INTER + INTRA:          -4.231
REMARK INTER:                  -4.231
REMARK INTRA:                   0.000
REMARK UNBOUND:                 0.000
REMARK  Name = 7222
REMARK  0 active torsions:
REMARK  status: ('A' for Active; 'I' for Inactive)
REMARK                            x       y       z     vdW  Elec       q    Type
REMARK                         _______ _______ _______ _____ _____    ______ ____
ROOT
ATOM      1  S   UNL     1     -24.491  -1.866   7.105  0.00  0.00    +0.000 S 
ATOM      2  N   UNL     1     -23.102  -0.719   8.950  0.00  0.00    +0.000 NA
ATOM      3  C   UNL     1     -22.839  -1.522   6.755  0.00  0.00    +0.000 A 
ATOM      4  C   UNL     1     -22.256  -0.905   7.866  0.00  0.00    +0.000 A 
ATOM      5  C   UNL     1     -22.110  -1.778   5.582  0.00  0.00    +0.000 A 
ATOM      6  C   UNL     1     -20.896  -0.533   7.799  0.00  0.00    +0.000 A 
ATOM      7  C   UNL     1     -20.766  -1.400   5.541  0.00  0.00    +0.000 A 
ATOM      8  C   UNL     1     -20.164  -0.785   6.635  0.00  0.00    +0.000 A 
ATOM      9  C   UNL     1     -24.295  -1.184   8.661  0.00  0.00    +0.000 A 
ATOM     10  H   UNL     1     -22.574  -2.258   4.726  0.00  0.00    +0.000 HD
ATOM     11  H   UNL     1     -20.416  -0.053   8.646  0.00  0.00    +0.000 HD
ATOM     12  H   UNL     1     -20.184  -1.590   4.644  0.00  0.00    +0.000 HD
ATOM     13  H   UNL     1     -19.117  -0.499   6.585  0.00  0.00    +0.000 HD
ATOM     14  H   UNL     1     -25.113  -1.142   9.366  0.00  0.00    +0.000 HD
ENDROOT
TORSDOF 0
ENDMDL
MODEL 6
REMARK VINA RESULT:    -4.066     32.925     33.988
REMARK INTER + INTRA:          -4.066
REMARK INTER:                  -4.066
REMARK INTRA:                   0.000
REMARK UNBOUND:                 0.000
REMARK  Name = 7222
REMARK  0 active torsions:
REMARK  status: ('A' for Active; 'I' for Inactive)
REMARK                            x       y       z     vdW  Elec       q    Type
REMARK                         _______ _______ _______ _____ _____    ______ ____
ROOT
ATOM      1  S   UNL     1     -12.097 -11.231  17.021  0.00  0.00    +0.000 S 
ATOM      2  N   UNL     1     -11.099  -9.693  15.208  0.00  0.00    +0.000 NA
ATOM      3  C   UNL     1     -10.447 -11.483  16.587  0.00  0.00    +0.000 A 
ATOM      4  C   UNL     1     -10.090 -10.561  15.598  0.00  0.00    +0.000 A 
ATOM      5  C   UNL     1      -9.535 -12.427  17.085  0.00  0.00    +0.000 A 
ATOM      6  C   UNL     1      -8.773 -10.588  15.091  0.00  0.00    +0.000 A 
ATOM      7  C   UNL     1      -8.238 -12.432  16.567  0.00  0.00    +0.000 A 
ATOM      8  C   UNL     1      -7.859 -11.525  15.582  0.00  0.00    +0.000 A 
ATOM      9  C   UNL     1     -12.191  -9.954  15.887  0.00  0.00    +0.000 A 
ATOM     10  H   UNL     1      -9.824 -13.137  17.853  0.00  0.00    +0.000 HD
ATOM     11  H   UNL     1      -8.466  -9.884  14.323  0.00  0.00    +0.000 HD
ATOM     12  H   UNL     1      -7.516 -13.154  16.938  0.00  0.00    +0.000 HD
ATOM     13  H   UNL     1      -6.845 -11.544  15.191  0.00  0.00    +0.000 HD
ATOM     14  H   UNL     1     -13.105  -9.394  15.743  0.00  0.00    +0.000 HD
ENDROOT
TORSDOF 0
ENDMDL
MODEL 7
REMARK VINA RESULT:    -4.056     11.182     12.179
REMARK INTER + INTRA:          -4.056
REMARK INTER:                  -4.056
REMARK INTRA:                   0.000
REMARK UNBOUND:                 0.000
REMARK  Name = 7222
REMARK  0 active torsions:
REMARK  status: ('A' for Active; 'I' for Inactive)
REMARK                            x       y       z     vdW  Elec       q    Type
REMARK                         _______ _______ _______ _____ _____    ______ ____
ROOT
ATOM      1  S   UNL     1       2.072   0.332 -13.238  0.00  0.00    +0.000 S 
ATOM      2  N   UNL     1       2.058  -2.241 -13.413  0.00  0.00    +0.000 NA
ATOM      3  C   UNL     1       3.332  -0.408 -14.153  0.00  0.00    +0.000 A 
ATOM      4  C   UNL     1       3.157  -1.795 -14.133  0.00  0.00    +0.000 A 
ATOM      5  C   UNL     1       4.398   0.194 -14.840  0.00  0.00    +0.000 A 
ATOM      6  C   UNL     1       4.082  -2.605 -14.824  0.00  0.00    +0.000 A 
ATOM      7  C   UNL     1       5.300  -0.630 -15.517  0.00  0.00    +0.000 A 
ATOM      8  C   UNL     1       5.147  -2.013 -15.511  0.00  0.00    +0.000 A 
ATOM      9  C   UNL     1       1.420  -1.213 -12.902  0.00  0.00    +0.000 A 
ATOM     10  H   UNL     1       4.524   1.273 -14.849  0.00  0.00    +0.000 HD
ATOM     11  H   UNL     1       3.972  -3.686 -14.826  0.00  0.00    +0.000 HD
ATOM     12  H   UNL     1       6.133  -0.184 -16.055  0.00  0.00    +0.000 HD
ATOM     13  H   UNL     1       5.858  -2.638 -16.043  0.00  0.00    +0.000 HD
ATOM     14  H   UNL     1       0.530  -1.331 -12.301  0.00  0.00    +0.000 HD
ENDROOT
TORSDOF 0
ENDMDL
MODEL 8
REMARK VINA RESULT:    -3.999     33.431     34.689
REMARK INTER + INTRA:          -3.999
REMARK INTER:                  -3.999
REMARK INTRA:                   0.000
REMARK UNBOUND:                 0.000
REMARK  Name = 7222
REMARK  0 active torsions:
REMARK  status: ('A' for Active; 'I' for Inactive)
REMARK                            x       y       z     vdW  Elec       q    Type
REMARK                         _______ _______ _______ _____ _____    ______ ____
ROOT
ATOM      1  S   UNL     1      -7.897 -11.591  15.598  0.00  0.00    +0.000 S 
ATOM      2  N   UNL     1     -10.219 -10.578  15.114  0.00  0.00    +0.000 NA
ATOM      3  C   UNL     1      -9.170 -11.961  16.701  0.00  0.00    +0.000 A 
ATOM      4  C   UNL     1     -10.342 -11.327  16.275  0.00  0.00    +0.000 A 
ATOM      5  C   UNL     1      -9.136 -12.754  17.858  0.00  0.00    +0.000 A 
ATOM      6  C   UNL     1     -11.518 -11.494  17.036  0.00  0.00    +0.000 A 
ATOM      7  C   UNL     1     -10.313 -12.904  18.594  0.00  0.00    +0.000 A 
ATOM      8  C   UNL     1     -11.491 -12.283  18.191  0.00  0.00    +0.000 A 
ATOM      9  C   UNL     1      -8.983 -10.646  14.675  0.00  0.00    +0.000 A 
ATOM     10  H   UNL     1      -8.220 -13.241  18.179  0.00  0.00    +0.000 HD
ATOM     11  H   UNL     1     -12.443 -11.014  16.730  0.00  0.00    +0.000 HD
ATOM     12  H   UNL     1     -10.309 -13.514  19.494  0.00  0.00    +0.000 HD
ATOM     13  H   UNL     1     -12.398 -12.411  18.776  0.00  0.00    +0.000 HD
ATOM     14  H   UNL     1      -8.664 -10.134  13.778  0.00  0.00    +0.000 HD
ENDROOT
TORSDOF 0
ENDMDL
MODEL 9
REMARK VINA RESULT:    -3.936      6.868      7.753
REMARK INTER + INTRA:          -3.936
REMARK INTER:                  -3.936
REMARK INTRA:                   0.000
REMARK UNBOUND:                 0.000
REMARK  Name = 7222
REMARK  0 active torsions:
REMARK  status: ('A' for Active; 'I' for Inactive)
REMARK                            x       y       z     vdW  Elec       q    Type
REMARK                         _______ _______ _______ _____ _____    ______ ____
ROOT
ATOM      1  S   UNL     1      -7.789   3.426  -8.683  0.00  0.00    +0.000 S 
ATOM      2  N   UNL     1      -7.539   5.992  -8.630  0.00  0.00    +0.000 NA
ATOM      3  C   UNL     1      -8.063   4.219  -7.176  0.00  0.00    +0.000 A 
ATOM      4  C   UNL     1      -7.882   5.595  -7.346  0.00  0.00    +0.000 A 
ATOM      5  C   UNL     1      -8.411   3.664  -5.935  0.00  0.00    +0.000 A 
ATOM      6  C   UNL     1      -8.058   6.443  -6.231  0.00  0.00    +0.000 A 
ATOM      7  C   UNL     1      -8.579   4.525  -4.848  0.00  0.00    +0.000 A 
ATOM      8  C   UNL     1      -8.405   5.898  -4.991  0.00  0.00    +0.000 A 
ATOM      9  C   UNL     1      -7.463   4.939  -9.410  0.00  0.00    +0.000 A 
ATOM     10  H   UNL     1      -8.549   2.594  -5.816  0.00  0.00    +0.000 HD
ATOM     11  H   UNL     1      -7.925   7.516  -6.332  0.00  0.00    +0.000 HD
ATOM     12  H   UNL     1      -8.849   4.117  -3.878  0.00  0.00    +0.000 HD
ATOM     13  H   UNL     1      -8.540   6.553  -4.135  0.00  0.00    +0.000 HD
ATOM     14  H   UNL     1      -7.209   5.019 -10.458  0.00  0.00    +0.000 HD
ENDROOT
TORSDOF 0
ENDMDL
MODEL 10
REMARK VINA RESULT:    -3.913     26.694     27.017
REMARK INTER + INTRA:          -3.913
REMARK INTER:                  -3.913
REMARK INTRA:                   0.000
REMARK UNBOUND:                 0.000
REMARK  Name = 7222
REMARK  0 active torsions:
REMARK  status: ('A' for Active; 'I' for Inactive)
REMARK                            x       y       z     vdW  Elec       q    Type
REMARK                         _______ _______ _______ _____ _____    ______ ____
ROOT
ATOM      1  S   UNL     1      16.343  -5.912   6.064  0.00  0.00    +0.000 S 
ATOM      2  N   UNL     1      15.297  -3.710   5.225  0.00  0.00    +0.000 NA
ATOM      3  C   UNL     1      14.721  -5.573   6.540  0.00  0.00    +0.000 A 
ATOM      4  C   UNL     1      14.332  -4.346   5.992  0.00  0.00    +0.000 A 
ATOM      5  C   UNL     1      13.856  -6.336   7.339  0.00  0.00    +0.000 A 
ATOM      6  C   UNL     1      13.030  -3.869   6.256  0.00  0.00    +0.000 A 
ATOM      7  C   UNL     1      12.572  -5.842   7.585  0.00  0.00    +0.000 A 
ATOM      8  C   UNL     1      12.162  -4.624   7.051  0.00  0.00    +0.000 A 
ATOM      9  C   UNL     1      16.388  -4.439   5.195  0.00  0.00    +0.000 A 
ATOM     10  H   UNL     1      14.169  -7.287   7.758  0.00  0.00    +0.000 HD
ATOM     11  H   UNL     1      12.700  -2.920   5.845  0.00  0.00    +0.000 HD
ATOM     12  H   UNL     1      11.886  -6.416   8.201  0.00  0.00    +0.000 HD
ATOM     13  H   UNL     1      11.161  -4.255   7.253  0.00  0.00    +0.000 HD
ATOM     14  H   UNL     1      17.269  -4.131   4.652  0.00  0.00    +0.000 HD
ENDROOT
TORSDOF 0
ENDMDL
