MODEL 1
REMARK VINA RESULT:    -4.961      0.000      0.000
REMARK INTER + INTRA:          -5.260
REMARK INTER:                  -5.247
REMARK INTRA:                  -0.012
REMARK UNBOUND:                -0.009
REMARK  Name = 240
REMARK  1 active torsions:
REMARK  status: ('A' for Active; 'I' for Inactive)
REMARK    1  A    between atoms: C_2  and  C_8
REMARK                            x       y       z     vdW  Elec       q    Type
REMARK                         _______ _______ _______ _____ _____    ______ ____
ROOT
ATOM      1  C   UNL     1      -1.848   9.014 -10.379  0.00  0.00    +0.000 A 
ATOM      2  C   UNL     1      -2.022   7.788 -11.021  0.00  0.00    +0.000 A 
ATOM      3  C   UNL     1      -2.428   9.237  -9.130  0.00  0.00    +0.000 A 
ATOM      4  C   UNL     1      -2.776   6.784 -10.413  0.00  0.00    +0.000 A 
ATOM      5  C   UNL     1      -3.182   8.233  -8.523  0.00  0.00    +0.000 A 
ATOM      6  C   UNL     1      -3.356   7.006  -9.164  0.00  0.00    +0.000 A 
ATOM      7  H   UNL     1      -1.577   7.600 -11.995  0.00  0.00    +0.000 HD
ATOM      8  H   UNL     1      -2.305  10.184  -8.612  0.00  0.00    +0.000 HD
ATOM      9  H   UNL     1      -2.912   5.829 -10.913  0.00  0.00    +0.000 HD
ATOM     10  H   UNL     1      -3.633   8.406  -7.550  0.00  0.00    +0.000 HD
ATOM     11  H   UNL     1      -3.943   6.225  -8.691  0.00  0.00    +0.000 HD
ENDROOT
BRANCH   1  13
ATOM     12  O   UNL     1      -0.993  10.206 -12.237  0.00  0.00    +0.000 OA
ATOM     13  C   UNL     1      -1.062  10.062 -11.013  0.00  0.00    +0.000 C 
ATOM     14  H   UNL     1      -0.513  10.744 -10.342  0.00  0.00    +0.000 HD
ENDBRANCH   1  13
TORSDOF 1
ENDMDL
MODEL 2
REMARK VINA RESULT:    -4.585      2.377      3.807
REMARK INTER + INTRA:          -4.862
REMARK INTER:                  -4.852
REMARK INTRA:                  -0.009
REMARK UNBOUND:                -0.009
REMARK  Name = 240
REMARK  1 active torsions:
REMARK  status: ('A' for Active; 'I' for Inactive)
REMARK    1  A    between atoms: C_2  and  C_8
REMARK                            x       y       z     vdW  Elec       q    Type
REMARK                         _______ _______ _______ _____ _____    ______ ____
ROOT
ATOM      1  C   UNL     1      -3.055   7.495  -9.557  0.00  0.00    +0.000 A 
ATOM      2  C   UNL     1      -2.779   8.787  -9.109  0.00  0.00    +0.000 A 
ATOM      3  C   UNL     1      -2.505   7.041 -10.756  0.00  0.00    +0.000 A 
ATOM      4  C   UNL     1      -1.954   9.624  -9.860  0.00  0.00    +0.000 A 
ATOM      5  C   UNL     1      -1.680   7.878 -11.506  0.00  0.00    +0.000 A 
ATOM      6  C   UNL     1      -1.404   9.170 -11.058  0.00  0.00    +0.000 A 
ATOM      7  H   UNL     1      -3.200   9.155  -8.176  0.00  0.00    +0.000 HD
ATOM      8  H   UNL     1      -2.707   6.038 -11.125  0.00  0.00    +0.000 HD
ATOM      9  H   UNL     1      -1.739  10.630  -9.510  0.00  0.00    +0.000 HD
ATOM     10  H   UNL     1      -1.252   7.525 -12.440  0.00  0.00    +0.000 HD
ATOM     11  H   UNL     1      -0.762   9.822 -11.642  0.00  0.00    +0.000 HD
ENDROOT
BRANCH   1  13
ATOM     12  O   UNL     1      -5.040   6.273  -9.147  0.00  0.00    +0.000 OA
ATOM     13  C   UNL     1      -3.916   6.622  -8.774  0.00  0.00    +0.000 C 
ATOM     14  H   UNL     1      -3.517   6.271  -7.808  0.00  0.00    +0.000 HD
ENDBRANCH   1  13
TORSDOF 1
ENDMDL
MODEL 3
REMARK VINA RESULT:    -4.566     13.544     14.236
REMARK INTER + INTRA:          -4.842
REMARK INTER:                  -4.832
REMARK INTRA:                  -0.010
REMARK UNBOUND:                -0.009
REMARK  Name = 240
REMARK  1 active torsions:
REMARK  status: ('A' for Active; 'I' for Inactive)
REMARK    1  A    between atoms: C_2  and  C_8
REMARK                            x       y       z     vdW  Elec       q    Type
REMARK                         _______ _______ _______ _____ _____    ______ ____
ROOT
ATOM      1  C   UNL     1       4.459   9.301   1.529  0.00  0.00    +0.000 A 
ATOM      2  C   UNL     1       3.971   8.557   2.604  0.00  0.00    +0.000 A 
ATOM      3  C   UNL     1       5.770   9.115   1.090  0.00  0.00    +0.000 A 
ATOM      4  C   UNL     1       4.794   7.627   3.239  0.00  0.00    +0.000 A 
ATOM      5  C   UNL     1       6.592   8.185   1.726  0.00  0.00    +0.000 A 
ATOM      6  C   UNL     1       6.104   7.441   2.801  0.00  0.00    +0.000 A 
ATOM      7  H   UNL     1       2.951   8.691   2.957  0.00  0.00    +0.000 HD
ATOM      8  H   UNL     1       6.171   9.684   0.256  0.00  0.00    +0.000 HD
ATOM      9  H   UNL     1       4.414   7.048   4.076  0.00  0.00    +0.000 HD
ATOM     10  H   UNL     1       7.614   8.040   1.384  0.00  0.00    +0.000 HD
ATOM     11  H   UNL     1       6.745   6.718   3.295  0.00  0.00    +0.000 HD
ENDROOT
BRANCH   1  13
ATOM     12  O   UNL     1       3.211  11.309   1.410  0.00  0.00    +0.000 OA
ATOM     13  C   UNL     1       3.600  10.271   0.867  0.00  0.00    +0.000 C 
ATOM     14  H   UNL     1       3.300  10.040  -0.169  0.00  0.00    +0.000 HD
ENDBRANCH   1  13
TORSDOF 1
ENDMDL
MODEL 4
REMARK VINA RESULT:    -4.511     16.607     18.094
REMARK INTER + INTRA:          -4.783
REMARK INTER:                  -4.773
REMARK INTRA:                  -0.010
REMARK UNBOUND:                -0.009
REMARK  Name = 240
REMARK  1 active torsions:
REMARK  status: ('A' for Active; 'I' for Inactive)
REMARK    1  A    between atoms: C_2  and  C_8
REMARK                            x       y       z     vdW  Elec       q    Type
REMARK                         _______ _______ _______ _____ _____    ______ ____
ROOT
ATOM      1  C   UNL     1      -8.252  11.234   6.659  0.00  0.00    +0.000 A 
ATOM      2  C   UNL     1      -7.704  12.387   7.222  0.00  0.00    +0.000 A 
ATOM      3  C   UNL     1      -8.038  10.946   5.311  0.00  0.00    +0.000 A 
ATOM      4  C   UNL     1      -6.943  13.252   6.437  0.00  0.00    +0.000 A 
ATOM      5  C   UNL     1      -7.276  11.812   4.526  0.00  0.00    +0.000 A 
ATOM      6  C   UNL     1      -6.729  12.965   5.089  0.00  0.00    +0.000 A 
ATOM      7  H   UNL     1      -7.863  12.624   8.272  0.00  0.00    +0.000 HD
ATOM      8  H   UNL     1      -8.455  10.054   4.852  0.00  0.00    +0.000 HD
ATOM      9  H   UNL     1      -6.516  14.150   6.876  0.00  0.00    +0.000 HD
ATOM     10  H   UNL     1      -7.110  11.589   3.476  0.00  0.00    +0.000 HD
ATOM     11  H   UNL     1      -6.136  13.639   4.478  0.00  0.00    +0.000 HD
ENDROOT
BRANCH   1  13
ATOM     12  O   UNL     1      -8.799   9.127   7.588  0.00  0.00    +0.000 OA
ATOM     13  C   UNL     1      -9.046  10.331   7.478  0.00  0.00    +0.000 C 
ATOM     14  H   UNL     1      -9.902  10.773   8.015  0.00  0.00    +0.000 HD
ENDBRANCH   1  13
TORSDOF 1
ENDMDL
MODEL 5
REMARK VINA RESULT:    -4.495      8.925      9.590
REMARK INTER + INTRA:          -4.766
REMARK INTER:                  -4.757
REMARK INTRA:                  -0.010
REMARK UNBOUND:                -0.009
REMARK  Name = 240
REMARK  1 active torsions:
REMARK  status: ('A' for Active; 'I' for Inactive)
REMARK    1  A    between atoms: C_2  and  C_8
REMARK                            x       y       z     vdW  Elec       q    Type
REMARK                         _______ _______ _______ _____ _____    ______ ____
ROOT
ATOM      1  C   UNL     1      -9.591   6.113  -5.450  0.00  0.00    +0.000 A 
ATOM      2  C   UNL     1     -10.572   5.138  -5.630  0.00  0.00    +0.000 A 
ATOM      3  C   UNL     1      -8.348   5.763  -4.922  0.00  0.00    +0.000 A 
ATOM      4  C   UNL     1     -10.311   3.813  -5.283  0.00  0.00    +0.000 A 
ATOM      5  C   UNL     1      -8.088   4.437  -4.575  0.00  0.00    +0.000 A 
ATOM      6  C   UNL     1      -9.069   3.462  -4.756  0.00  0.00    +0.000 A 
ATOM      7  H   UNL     1     -11.546   5.396  -6.041  0.00  0.00    +0.000 HD
ATOM      8  H   UNL     1      -7.569   6.505  -4.773  0.00  0.00    +0.000 HD
ATOM      9  H   UNL     1     -11.075   3.054  -5.424  0.00  0.00    +0.000 HD
ATOM     10  H   UNL     1      -7.120   4.164  -4.164  0.00  0.00    +0.000 HD
ATOM     11  H   UNL     1      -8.865   2.431  -4.486  0.00  0.00    +0.000 HD
ENDROOT
BRANCH   1  13
ATOM     12  O   UNL     1     -10.698   8.193  -5.228  0.00  0.00    +0.000 OA
ATOM     13  C   UNL     1      -9.864   7.496  -5.812  0.00  0.00    +0.000 C 
ATOM     14  H   UNL     1      -9.281   7.912  -6.650  0.00  0.00    +0.000 HD
ENDBRANCH   1  13
TORSDOF 1
ENDMDL
MODEL 6
REMARK VINA RESULT:    -4.482     13.045     13.379
REMARK INTER + INTRA:          -4.753
REMARK INTER:                  -4.739
REMARK INTRA:                  -0.014
REMARK UNBOUND:                -0.009
REMARK  Name = 240
REMARK  1 active torsions:
REMARK  status: ('A' for Active; 'I' for Inactive)
REMARK    1  A    between atoms: C_2  and  C_8
REMARK                            x       y       z     vdW  Elec       q    Type
REMARK                         _______ _______ _______ _____ _____    ______ ____
ROOT
ATOM      1  C   UNL     1       5.152  10.220   0.305  0.00  0.00    +0.000 A 
ATOM      2  C   UNL     1       5.741  11.285  -0.376  0.00  0.00    +0.000 A 
ATOM      3  C   UNL     1       5.736   8.954   0.258  0.00  0.00    +0.000 A 
ATOM      4  C   UNL     1       6.914  11.085  -1.104  0.00  0.00    +0.000 A 
ATOM      5  C   UNL     1       6.909   8.754  -0.470  0.00  0.00    +0.000 A 
ATOM      6  C   UNL     1       7.498   9.820  -1.151  0.00  0.00    +0.000 A 
ATOM      7  H   UNL     1       5.297  12.278  -0.348  0.00  0.00    +0.000 HD
ATOM      8  H   UNL     1       5.295   8.109   0.781  0.00  0.00    +0.000 HD
ATOM      9  H   UNL     1       7.372  11.915  -1.634  0.00  0.00    +0.000 HD
ATOM     10  H   UNL     1       7.364   7.768  -0.507  0.00  0.00    +0.000 HD
ATOM     11  H   UNL     1       8.410   9.664  -1.718  0.00  0.00    +0.000 HD
ENDROOT
BRANCH   1  13
ATOM     12  O   UNL     1       3.365  11.523   1.148  0.00  0.00    +0.000 OA
ATOM     13  C   UNL     1       3.929  10.428   1.065  0.00  0.00    +0.000 C 
ATOM     14  H   UNL     1       3.509   9.547   1.579  0.00  0.00    +0.000 HD
ENDBRANCH   1  13
TORSDOF 1
ENDMDL
MODEL 7
REMARK VINA RESULT:    -4.383      2.322      2.963
REMARK INTER + INTRA:          -4.648
REMARK INTER:                  -4.637
REMARK INTRA:                  -0.011
REMARK UNBOUND:                -0.009
REMARK  Name = 240
REMARK  1 active torsions:
REMARK  status: ('A' for Active; 'I' for Inactive)
REMARK    1  A    between atoms: C_2  and  C_8
REMARK                            x       y       z     vdW  Elec       q    Type
REMARK                         _______ _______ _______ _____ _____    ______ ____
ROOT
ATOM      1  C   UNL     1      -3.420   6.952 -11.329  0.00  0.00    +0.000 A 
ATOM      2  C   UNL     1      -2.779   6.911 -10.090  0.00  0.00    +0.000 A 
ATOM      3  C   UNL     1      -4.789   6.694 -11.415  0.00  0.00    +0.000 A 
ATOM      4  C   UNL     1      -3.507   6.614  -8.938  0.00  0.00    +0.000 A 
ATOM      5  C   UNL     1      -5.515   6.397 -10.262  0.00  0.00    +0.000 A 
ATOM      6  C   UNL     1      -4.874   6.356  -9.024  0.00  0.00    +0.000 A 
ATOM      7  H   UNL     1      -1.713   7.110 -10.008  0.00  0.00    +0.000 HD
ATOM      8  H   UNL     1      -5.308   6.721 -12.368  0.00  0.00    +0.000 HD
ATOM      9  H   UNL     1      -3.007   6.582  -7.974  0.00  0.00    +0.000 HD
ATOM     10  H   UNL     1      -6.581   6.196 -10.329  0.00  0.00    +0.000 HD
ATOM     11  H   UNL     1      -5.440   6.125  -8.127  0.00  0.00    +0.000 HD
ENDROOT
BRANCH   1  13
ATOM     12  O   UNL     1      -1.614   6.685 -12.834  0.00  0.00    +0.000 OA
ATOM     13  C   UNL     1      -2.662   7.262 -12.531  0.00  0.00    +0.000 C 
ATOM     14  H   UNL     1      -3.068   8.055 -13.182  0.00  0.00    +0.000 HD
ENDBRANCH   1  13
TORSDOF 1
ENDMDL
MODEL 8
REMARK VINA RESULT:    -4.375     25.825     26.848
REMARK INTER + INTRA:          -4.639
REMARK INTER:                  -4.630
REMARK INTRA:                  -0.009
REMARK UNBOUND:                -0.009
REMARK  Name = 240
REMARK  1 active torsions:
REMARK  status: ('A' for Active; 'I' for Inactive)
REMARK    1  A    between atoms: C_2  and  C_8
REMARK                            x       y       z     vdW  Elec       q    Type
REMARK                         _______ _______ _______ _____ _____    ______ ____
ROOT
ATOM      1  C   UNL     1     -21.124  -2.892   5.229  0.00  0.00    +0.000 A 
ATOM      2  C   UNL     1     -20.802  -2.729   6.577  0.00  0.00    +0.000 A 
ATOM      3  C   UNL     1     -21.074  -1.799   4.363  0.00  0.00    +0.000 A 
ATOM      4  C   UNL     1     -20.429  -1.474   7.058  0.00  0.00    +0.000 A 
ATOM      5  C   UNL     1     -20.701  -0.545   4.845  0.00  0.00    +0.000 A 
ATOM      6  C   UNL     1     -20.379  -0.382   6.193  0.00  0.00    +0.000 A 
ATOM      7  H   UNL     1     -20.837  -3.571   7.264  0.00  0.00    +0.000 HD
ATOM      8  H   UNL     1     -21.320  -1.903   3.310  0.00  0.00    +0.000 HD
ATOM      9  H   UNL     1     -20.178  -1.347   8.108  0.00  0.00    +0.000 HD
ATOM     10  H   UNL     1     -20.662   0.307   4.171  0.00  0.00    +0.000 HD
ATOM     11  H   UNL     1     -20.089   0.595   6.568  0.00  0.00    +0.000 HD
ENDROOT
BRANCH   1  13
ATOM     12  O   UNL     1     -20.735  -4.954   4.135  0.00  0.00    +0.000 OA
ATOM     13  C   UNL     1     -21.513  -4.201   4.727  0.00  0.00    +0.000 C 
ATOM     14  H   UNL     1     -22.558  -4.507   4.900  0.00  0.00    +0.000 HD
ENDBRANCH   1  13
TORSDOF 1
ENDMDL
MODEL 9
REMARK VINA RESULT:    -4.165     15.869     17.112
REMARK INTER + INTRA:          -4.418
REMARK INTER:                  -4.407
REMARK INTRA:                  -0.011
REMARK UNBOUND:                -0.009
REMARK  Name = 240
REMARK  1 active torsions:
REMARK  status: ('A' for Active; 'I' for Inactive)
REMARK    1  A    between atoms: C_2  and  C_8
REMARK                            x       y       z     vdW  Elec       q    Type
REMARK                         _______ _______ _______ _____ _____    ______ ____
ROOT
ATOM      1  C   UNL     1     -13.133  -2.833  -3.598  0.00  0.00    +0.000 A 
ATOM      2  C   UNL     1     -12.957  -1.679  -2.834  0.00  0.00    +0.000 A 
ATOM      3  C   UNL     1     -13.300  -2.737  -4.979  0.00  0.00    +0.000 A 
ATOM      4  C   UNL     1     -12.949  -0.428  -3.452  0.00  0.00    +0.000 A 
ATOM      5  C   UNL     1     -13.292  -1.486  -5.596  0.00  0.00    +0.000 A 
ATOM      6  C   UNL     1     -13.116  -0.332  -4.833  0.00  0.00    +0.000 A 
ATOM      7  H   UNL     1     -12.826  -1.738  -1.756  0.00  0.00    +0.000 HD
ATOM      8  H   UNL     1     -13.439  -3.622  -5.593  0.00  0.00    +0.000 HD
ATOM      9  H   UNL     1     -12.812   0.470  -2.857  0.00  0.00    +0.000 HD
ATOM     10  H   UNL     1     -13.422  -1.411  -6.673  0.00  0.00    +0.000 HD
ATOM     11  H   UNL     1     -13.109   0.641  -5.314  0.00  0.00    +0.000 HD
ENDROOT
BRANCH   1  13
ATOM     12  O   UNL     1     -13.863  -4.407  -1.988  0.00  0.00    +0.000 OA
ATOM     13  C   UNL     1     -13.142  -4.137  -2.953  0.00  0.00    +0.000 C 
ATOM     14  H   UNL     1     -12.463  -4.900  -3.369  0.00  0.00    +0.000 HD
ENDBRANCH   1  13
TORSDOF 1
ENDMDL
MODEL 10
REMARK VINA RESULT:    -4.075     26.485     26.899
REMARK INTER + INTRA:          -4.322
REMARK INTER:                  -4.314
REMARK INTRA:                  -0.009
REMARK UNBOUND:                -0.009
REMARK  Name = 240
REMARK  1 active torsions:
REMARK  status: ('A' for Active; 'I' for Inactive)
REMARK    1  A    between atoms: C_2  and  C_8
REMARK                            x       y       z     vdW  Elec       q    Type
REMARK                         _______ _______ _______ _____ _____    ______ ____
ROOT
ATOM      1  C   UNL     1      14.332  -3.946   6.684  0.00  0.00    +0.000 A 
ATOM      2  C   UNL     1      13.093  -3.305   6.674  0.00  0.00    +0.000 A 
ATOM      3  C   UNL     1      14.972  -4.207   7.896  0.00  0.00    +0.000 A 
ATOM      4  C   UNL     1      12.494  -2.925   7.875  0.00  0.00    +0.000 A 
ATOM      5  C   UNL     1      14.372  -3.827   9.097  0.00  0.00    +0.000 A 
ATOM      6  C   UNL     1      13.133  -3.186   9.086  0.00  0.00    +0.000 A 
ATOM      7  H   UNL     1      12.582  -3.095   5.737  0.00  0.00    +0.000 HD
ATOM      8  H   UNL     1      15.937  -4.705   7.928  0.00  0.00    +0.000 HD
ATOM      9  H   UNL     1      11.529  -2.426   7.867  0.00  0.00    +0.000 HD
ATOM     10  H   UNL     1      14.871  -4.031  10.041  0.00  0.00    +0.000 HD
ATOM     11  H   UNL     1      12.667  -2.891  10.021  0.00  0.00    +0.000 HD
ENDROOT
BRANCH   1  13
ATOM     12  O   UNL     1      15.721  -3.609   4.798  0.00  0.00    +0.000 OA
ATOM     13  C   UNL     1      14.956  -4.342   5.431  0.00  0.00    +0.000 C 
ATOM     14  H   UNL     1      14.717  -5.351   5.056  0.00  0.00    +0.000 HD
ENDBRANCH   1  13
TORSDOF 1
ENDMDL
