MODEL 1
REMARK VINA RESULT:    -5.887      0.000      0.000
REMARK INTER + INTRA:          -7.511
REMARK INTER:                  -7.316
REMARK INTRA:                  -0.195
REMARK UNBOUND:                -0.247
REMARK  Name = 638014
REMARK  6 active torsions:
REMARK  status: ('A' for Active; 'I' for Inactive)
REMARK    1  A    between atoms: C_2  and  C_8
REMARK    2  A    between atoms: C_2  and  C_9
REMARK    3  A    between atoms: C_5  and  C_10
REMARK    4  A    between atoms: C_7  and  C_11
REMARK    5  A    between atoms: C_12  and  C_13
REMARK    6  A    between atoms: C_13  and  C_14
REMARK                            x       y       z     vdW  Elec       q    Type
REMARK                         _______ _______ _______ _____ _____    ______ ____
ROOT
ATOM      1  C   UNL     1       7.041   9.220  -0.128  0.00  0.00    +0.000 C 
ATOM      2  C   UNL     1       7.021  10.259  -1.284  0.00  0.00    +0.000 C 
ATOM      3  C   UNL     1       6.535  11.621  -0.823  0.00  0.00    +0.000 C 
ATOM      4  C   UNL     1       5.754   9.293   0.724  0.00  0.00    +0.000 C 
ATOM      5  C   UNL     1       5.118  11.513  -0.282  0.00  0.00    +0.000 C 
ATOM      6  C   UNL     1       4.877  10.325   0.626  0.00  0.00    +0.000 C 
ATOM      7  H   UNL     1       6.363   9.909  -2.091  0.00  0.00    +0.000 HD
ATOM      8  H   UNL     1       8.021  10.360  -1.726  0.00  0.00    +0.000 HD
ATOM      9  H   UNL     1       6.556  12.329  -1.659  0.00  0.00    +0.000 HD
ATOM     10  H   UNL     1       7.203  12.029  -0.054  0.00  0.00    +0.000 HD
ATOM     11  H   UNL     1       4.416  11.450  -1.123  0.00  0.00    +0.000 HD
ATOM     12  H   UNL     1       4.888  12.442   0.256  0.00  0.00    +0.000 HD
ENDROOT
BRANCH   1  13
ATOM     13  C   UNL     1       8.272   9.490   0.769  0.00  0.00    +0.000 C 
ATOM     14  H   UNL     1       8.546  10.551   0.777  0.00  0.00    +0.000 HD
ATOM     15  H   UNL     1       8.082   9.195   1.808  0.00  0.00    +0.000 HD
ATOM     16  H   UNL     1       9.144   8.922   0.426  0.00  0.00    +0.000 HD
ENDBRANCH   1  13
BRANCH   1  17
ATOM     17  C   UNL     1       7.217   7.837  -0.801  0.00  0.00    +0.000 C 
ATOM     18  H   UNL     1       7.127   7.919  -1.892  0.00  0.00    +0.000 HD
ATOM     19  H   UNL     1       8.202   7.400  -0.604  0.00  0.00    +0.000 HD
ATOM     20  H   UNL     1       6.454   7.127  -0.459  0.00  0.00    +0.000 HD
ENDBRANCH   1  17
BRANCH   4  21
ATOM     21  C   UNL     1       5.554   8.197   1.659  0.00  0.00    +0.000 C 
ATOM     22  C   UNL     1       5.916   8.275   2.935  0.00  0.00    +0.000 C 
ATOM     23  H   UNL     1       5.059   7.308   1.284  0.00  0.00    +0.000 HD
ATOM     24  H   UNL     1       6.444   9.121   3.359  0.00  0.00    +0.000 HD
BRANCH  22  26
ATOM     25  O   UNL     1       4.796   6.292   3.637  0.00  0.00    +0.000 OA
ATOM     26  C   UNL     1       5.684   7.117   3.843  0.00  0.00    +0.000 C 
BRANCH  26  27
ATOM     27  C   UNL     1       6.582   7.006   5.047  0.00  0.00    +0.000 C 
ATOM     28  H   UNL     1       7.603   7.275   4.758  0.00  0.00    +0.000 HD
ATOM     29  H   UNL     1       6.270   7.686   5.843  0.00  0.00    +0.000 HD
ATOM     30  H   UNL     1       6.558   5.980   5.421  0.00  0.00    +0.000 HD
ENDBRANCH  26  27
ENDBRANCH  22  26
ENDBRANCH   4  21
BRANCH   6  31
ATOM     31  C   UNL     1       3.573  10.451   1.380  0.00  0.00    +0.000 C 
ATOM     32  H   UNL     1       2.962  11.258   0.965  0.00  0.00    +0.000 HD
ATOM     33  H   UNL     1       3.701  10.592   2.457  0.00  0.00    +0.000 HD
ATOM     34  H   UNL     1       2.999   9.521   1.286  0.00  0.00    +0.000 HD
ENDBRANCH   6  31
TORSDOF 6
ENDMDL
MODEL 2
REMARK VINA RESULT:    -5.647      0.974      2.651
REMARK INTER + INTRA:          -7.214
REMARK INTER:                  -6.988
REMARK INTRA:                  -0.226
REMARK UNBOUND:                -0.247
REMARK  Name = 638014
REMARK  6 active torsions:
REMARK  status: ('A' for Active; 'I' for Inactive)
REMARK    1  A    between atoms: C_2  and  C_8
REMARK    2  A    between atoms: C_2  and  C_9
REMARK    3  A    between atoms: C_5  and  C_10
REMARK    4  A    between atoms: C_7  and  C_11
REMARK    5  A    between atoms: C_12  and  C_13
REMARK    6  A    between atoms: C_13  and  C_14
REMARK                            x       y       z     vdW  Elec       q    Type
REMARK                         _______ _______ _______ _____ _____    ______ ____
ROOT
ATOM      1  C   UNL     1       4.534  10.141   0.290  0.00  0.00    +0.000 C 
ATOM      2  C   UNL     1       4.852  11.165  -0.835  0.00  0.00    +0.000 C 
ATOM      3  C   UNL     1       6.083  10.778  -1.633  0.00  0.00    +0.000 C 
ATOM      4  C   UNL     1       5.811   9.726   1.058  0.00  0.00    +0.000 C 
ATOM      5  C   UNL     1       7.297  10.712  -0.721  0.00  0.00    +0.000 C 
ATOM      6  C   UNL     1       7.056  10.014   0.602  0.00  0.00    +0.000 C 
ATOM      7  H   UNL     1       5.018  12.160  -0.399  0.00  0.00    +0.000 HD
ATOM      8  H   UNL     1       3.995  11.268  -1.513  0.00  0.00    +0.000 HD
ATOM      9  H   UNL     1       6.260  11.511  -2.428  0.00  0.00    +0.000 HD
ATOM     10  H   UNL     1       5.931   9.812  -2.130  0.00  0.00    +0.000 HD
ATOM     11  H   UNL     1       7.647  11.731  -0.512  0.00  0.00    +0.000 HD
ATOM     12  H   UNL     1       8.104  10.204  -1.265  0.00  0.00    +0.000 HD
ENDROOT
BRANCH   1  13
ATOM     13  C   UNL     1       3.880   8.890  -0.339  0.00  0.00    +0.000 C 
ATOM     14  H   UNL     1       3.324   8.304   0.401  0.00  0.00    +0.000 HD
ATOM     15  H   UNL     1       3.174   9.164  -1.133  0.00  0.00    +0.000 HD
ATOM     16  H   UNL     1       4.633   8.233  -0.789  0.00  0.00    +0.000 HD
ENDBRANCH   1  13
BRANCH   1  17
ATOM     17  C   UNL     1       3.498  10.828   1.212  0.00  0.00    +0.000 C 
ATOM     18  H   UNL     1       3.993  11.498   1.927  0.00  0.00    +0.000 HD
ATOM     19  H   UNL     1       2.787  11.446   0.652  0.00  0.00    +0.000 HD
ATOM     20  H   UNL     1       2.927  10.091   1.790  0.00  0.00    +0.000 HD
ENDBRANCH   1  17
BRANCH   4  21
ATOM     21  C   UNL     1       5.591   8.984   2.290  0.00  0.00    +0.000 C 
ATOM     22  C   UNL     1       5.824   7.679   2.385  0.00  0.00    +0.000 C 
ATOM     23  H   UNL     1       5.258   9.545   3.156  0.00  0.00    +0.000 HD
ATOM     24  H   UNL     1       6.124   7.060   1.548  0.00  0.00    +0.000 HD
BRANCH  22  26
ATOM     25  O   UNL     1       4.628   6.215   3.834  0.00  0.00    +0.000 OA
ATOM     26  C   UNL     1       5.580   6.976   3.675  0.00  0.00    +0.000 C 
BRANCH  26  27
ATOM     27  C   UNL     1       6.549   7.251   4.794  0.00  0.00    +0.000 C 
ATOM     28  H   UNL     1       7.491   7.612   4.370  0.00  0.00    +0.000 HD
ATOM     29  H   UNL     1       6.170   8.020   5.471  0.00  0.00    +0.000 HD
ATOM     30  H   UNL     1       6.722   6.330   5.356  0.00  0.00    +0.000 HD
ENDBRANCH  26  27
ENDBRANCH  22  26
ENDBRANCH   4  21
BRANCH   6  31
ATOM     31  C   UNL     1       8.352   9.694   1.312  0.00  0.00    +0.000 C 
ATOM     32  H   UNL     1       9.118  10.436   1.072  0.00  0.00    +0.000 HD
ATOM     33  H   UNL     1       8.727   8.688   1.105  0.00  0.00    +0.000 HD
ATOM     34  H   UNL     1       8.197   9.718   2.397  0.00  0.00    +0.000 HD
ENDBRANCH   6  31
TORSDOF 6
ENDMDL
MODEL 3
REMARK VINA RESULT:    -5.293     28.967     30.020
REMARK INTER + INTRA:          -6.778
REMARK INTER:                  -6.545
REMARK INTRA:                  -0.233
REMARK UNBOUND:                -0.247
REMARK  Name = 638014
REMARK  6 active torsions:
REMARK  status: ('A' for Active; 'I' for Inactive)
REMARK    1  A    between atoms: C_2  and  C_8
REMARK    2  A    between atoms: C_2  and  C_9
REMARK    3  A    between atoms: C_5  and  C_10
REMARK    4  A    between atoms: C_7  and  C_11
REMARK    5  A    between atoms: C_12  and  C_13
REMARK    6  A    between atoms: C_13  and  C_14
REMARK                            x       y       z     vdW  Elec       q    Type
REMARK                         _______ _______ _______ _____ _____    ______ ____
ROOT
ATOM      1  C   UNL     1     -21.389  -3.359   2.559  0.00  0.00    +0.000 C 
ATOM      2  C   UNL     1     -21.107  -4.206   1.287  0.00  0.00    +0.000 C 
ATOM      3  C   UNL     1     -21.011  -5.689   1.594  0.00  0.00    +0.000 C 
ATOM      4  C   UNL     1     -20.511  -3.810   3.749  0.00  0.00    +0.000 C 
ATOM      5  C   UNL     1     -19.877  -5.946   2.574  0.00  0.00    +0.000 C 
ATOM      6  C   UNL     1     -19.810  -4.972   3.732  0.00  0.00    +0.000 C 
ATOM      7  H   UNL     1     -20.164  -3.884   0.825  0.00  0.00    +0.000 HD
ATOM      8  H   UNL     1     -21.889  -4.040   0.535  0.00  0.00    +0.000 HD
ATOM      9  H   UNL     1     -20.834  -6.253   0.671  0.00  0.00    +0.000 HD
ATOM     10  H   UNL     1     -21.958  -6.059   2.007  0.00  0.00    +0.000 HD
ATOM     11  H   UNL     1     -18.921  -5.907   2.037  0.00  0.00    +0.000 HD
ATOM     12  H   UNL     1     -19.985  -6.969   2.958  0.00  0.00    +0.000 HD
ENDROOT
BRANCH   1  13
ATOM     13  C   UNL     1     -22.882  -3.500   2.936  0.00  0.00    +0.000 C 
ATOM     14  H   UNL     1     -23.537  -3.031   2.193  0.00  0.00    +0.000 HD
ATOM     15  H   UNL     1     -23.179  -4.553   3.010  0.00  0.00    +0.000 HD
ATOM     16  H   UNL     1     -23.091  -3.037   3.906  0.00  0.00    +0.000 HD
ENDBRANCH   1  13
BRANCH   1  17
ATOM     17  C   UNL     1     -21.120  -1.888   2.160  0.00  0.00    +0.000 C 
ATOM     18  H   UNL     1     -20.790  -1.820   1.115  0.00  0.00    +0.000 HD
ATOM     19  H   UNL     1     -22.016  -1.263   2.242  0.00  0.00    +0.000 HD
ATOM     20  H   UNL     1     -20.336  -1.442   2.784  0.00  0.00    +0.000 HD
ENDBRANCH   1  17
BRANCH   4  21
ATOM     21  C   UNL     1     -20.504  -2.920   4.899  0.00  0.00    +0.000 C 
ATOM     22  C   UNL     1     -21.131  -3.217   6.032  0.00  0.00    +0.000 C 
ATOM     23  H   UNL     1     -19.930  -2.003   4.815  0.00  0.00    +0.000 HD
ATOM     24  H   UNL     1     -21.748  -4.098   6.164  0.00  0.00    +0.000 HD
BRANCH  22  26
ATOM     25  O   UNL     1     -21.698  -2.467   8.221  0.00  0.00    +0.000 OA
ATOM     26  C   UNL     1     -21.086  -2.263   7.175  0.00  0.00    +0.000 C 
BRANCH  26  27
ATOM     27  C   UNL     1     -20.264  -1.015   6.987  0.00  0.00    +0.000 C 
ATOM     28  H   UNL     1     -19.580  -0.906   7.834  0.00  0.00    +0.000 HD
ATOM     29  H   UNL     1     -19.663  -1.065   6.076  0.00  0.00    +0.000 HD
ATOM     30  H   UNL     1     -20.929  -0.150   6.931  0.00  0.00    +0.000 HD
ENDBRANCH  26  27
ENDBRANCH  22  26
ENDBRANCH   4  21
BRANCH   6  31
ATOM     31  C   UNL     1     -18.888  -5.463   4.825  0.00  0.00    +0.000 C 
ATOM     32  H   UNL     1     -19.267  -5.174   5.810  0.00  0.00    +0.000 HD
ATOM     33  H   UNL     1     -17.854  -5.130   4.708  0.00  0.00    +0.000 HD
ATOM     34  H   UNL     1     -18.835  -6.559   4.801  0.00  0.00    +0.000 HD
ENDBRANCH   6  31
TORSDOF 6
ENDMDL
MODEL 4
REMARK VINA RESULT:    -5.293     14.443     16.666
REMARK INTER + INTRA:          -6.778
REMARK INTER:                  -6.538
REMARK INTRA:                  -0.240
REMARK UNBOUND:                -0.247
REMARK  Name = 638014
REMARK  6 active torsions:
REMARK  status: ('A' for Active; 'I' for Inactive)
REMARK    1  A    between atoms: C_2  and  C_8
REMARK    2  A    between atoms: C_2  and  C_9
REMARK    3  A    between atoms: C_5  and  C_10
REMARK    4  A    between atoms: C_7  and  C_11
REMARK    5  A    between atoms: C_12  and  C_13
REMARK    6  A    between atoms: C_13  and  C_14
REMARK                            x       y       z     vdW  Elec       q    Type
REMARK                         _______ _______ _______ _____ _____    ______ ____
ROOT
ATOM      1  C   UNL     1      12.973  -3.612   7.246  0.00  0.00    +0.000 C 
ATOM      2  C   UNL     1      14.233  -3.870   6.373  0.00  0.00    +0.000 C 
ATOM      3  C   UNL     1      15.176  -4.875   7.008  0.00  0.00    +0.000 C 
ATOM      4  C   UNL     1      13.341  -3.438   8.737  0.00  0.00    +0.000 C 
ATOM      5  C   UNL     1      15.653  -4.363   8.358  0.00  0.00    +0.000 C 
ATOM      6  C   UNL     1      14.567  -3.757   9.224  0.00  0.00    +0.000 C 
ATOM      7  H   UNL     1      14.780  -2.929   6.218  0.00  0.00    +0.000 HD
ATOM      8  H   UNL     1      13.943  -4.222   5.375  0.00  0.00    +0.000 HD
ATOM      9  H   UNL     1      16.039  -5.045   6.354  0.00  0.00    +0.000 HD
ATOM     10  H   UNL     1      14.680  -5.846   7.127  0.00  0.00    +0.000 HD
ATOM     11  H   UNL     1      16.429  -3.603   8.201  0.00  0.00    +0.000 HD
ATOM     12  H   UNL     1      16.127  -5.197   8.890  0.00  0.00    +0.000 HD
ENDROOT
BRANCH   1  13
ATOM     13  C   UNL     1      12.001  -4.804   7.088  0.00  0.00    +0.000 C 
ATOM     14  H   UNL     1      11.949  -5.411   7.999  0.00  0.00    +0.000 HD
ATOM     15  H   UNL     1      10.983  -4.464   6.866  0.00  0.00    +0.000 HD
ATOM     16  H   UNL     1      12.309  -5.460   6.266  0.00  0.00    +0.000 HD
ENDBRANCH   1  13
BRANCH   1  17
ATOM     17  C   UNL     1      12.300  -2.348   6.660  0.00  0.00    +0.000 C 
ATOM     18  H   UNL     1      12.830  -1.440   6.977  0.00  0.00    +0.000 HD
ATOM     19  H   UNL     1      12.307  -2.342   5.564  0.00  0.00    +0.000 HD
ATOM     20  H   UNL     1      11.259  -2.257   6.995  0.00  0.00    +0.000 HD
ENDBRANCH   1  17
BRANCH   4  21
ATOM     21  C   UNL     1      12.278  -2.933   9.593  0.00  0.00    +0.000 C 
ATOM     22  C   UNL     1      11.526  -3.735  10.340  0.00  0.00    +0.000 C 
ATOM     23  H   UNL     1      12.138  -1.859   9.630  0.00  0.00    +0.000 HD
ATOM     24  H   UNL     1      11.595  -4.815  10.320  0.00  0.00    +0.000 HD
BRANCH  22  26
ATOM     25  O   UNL     1       9.263  -3.242  10.900  0.00  0.00    +0.000 OA
ATOM     26  C   UNL     1      10.453  -3.156  11.196  0.00  0.00    +0.000 C 
BRANCH  26  27
ATOM     27  C   UNL     1      10.892  -2.439  12.445  0.00  0.00    +0.000 C 
ATOM     28  H   UNL     1      11.265  -3.172  13.166  0.00  0.00    +0.000 HD
ATOM     29  H   UNL     1      11.699  -1.732  12.238  0.00  0.00    +0.000 HD
ATOM     30  H   UNL     1      10.042  -1.898  12.868  0.00  0.00    +0.000 HD
ENDBRANCH  26  27
ENDBRANCH  22  26
ENDBRANCH   4  21
BRANCH   6  31
ATOM     31  C   UNL     1      15.027  -3.570  10.651  0.00  0.00    +0.000 C 
ATOM     32  H   UNL     1      14.978  -4.515  11.200  0.00  0.00    +0.000 HD
ATOM     33  H   UNL     1      14.478  -2.794  11.190  0.00  0.00    +0.000 HD
ATOM     34  H   UNL     1      16.072  -3.235  10.664  0.00  0.00    +0.000 HD
ENDBRANCH   6  31
TORSDOF 6
ENDMDL
MODEL 5
REMARK VINA RESULT:    -5.259     14.133     15.576
REMARK INTER + INTRA:          -6.735
REMARK INTER:                  -6.727
REMARK INTRA:                  -0.008
REMARK UNBOUND:                -0.247
REMARK  Name = 638014
REMARK  6 active torsions:
REMARK  status: ('A' for Active; 'I' for Inactive)
REMARK    1  A    between atoms: C_2  and  C_8
REMARK    2  A    between atoms: C_2  and  C_9
REMARK    3  A    between atoms: C_5  and  C_10
REMARK    4  A    between atoms: C_7  and  C_11
REMARK    5  A    between atoms: C_12  and  C_13
REMARK    6  A    between atoms: C_13  and  C_14
REMARK                            x       y       z     vdW  Elec       q    Type
REMARK                         _______ _______ _______ _____ _____    ______ ____
ROOT
ATOM      1  C   UNL     1      -8.241  12.178   5.452  0.00  0.00    +0.000 C 
ATOM      2  C   UNL     1      -7.598  13.414   4.765  0.00  0.00    +0.000 C 
ATOM      3  C   UNL     1      -6.187  13.676   5.258  0.00  0.00    +0.000 C 
ATOM      4  C   UNL     1      -7.981  12.175   6.976  0.00  0.00    +0.000 C 
ATOM      5  C   UNL     1      -6.199  13.941   6.756  0.00  0.00    +0.000 C 
ATOM      6  C   UNL     1      -7.071  12.998   7.558  0.00  0.00    +0.000 C 
ATOM      7  H   UNL     1      -8.207  14.309   4.959  0.00  0.00    +0.000 HD
ATOM      8  H   UNL     1      -7.585  13.283   3.675  0.00  0.00    +0.000 HD
ATOM      9  H   UNL     1      -5.762  14.541   4.736  0.00  0.00    +0.000 HD
ATOM     10  H   UNL     1      -5.535  12.824   5.031  0.00  0.00    +0.000 HD
ATOM     11  H   UNL     1      -6.546  14.966   6.937  0.00  0.00    +0.000 HD
ATOM     12  H   UNL     1      -5.164  13.887   7.118  0.00  0.00    +0.000 HD
ENDROOT
BRANCH   1  13
ATOM     13  C   UNL     1      -7.654  10.892   4.825  0.00  0.00    +0.000 C 
ATOM     14  H   UNL     1      -7.457  11.014   3.754  0.00  0.00    +0.000 HD
ATOM     15  H   UNL     1      -6.706  10.612   5.299  0.00  0.00    +0.000 HD
ATOM     16  H   UNL     1      -8.338  10.045   4.945  0.00  0.00    +0.000 HD
ENDBRANCH   1  13
BRANCH   1  17
ATOM     17  C   UNL     1      -9.751  12.242   5.119  0.00  0.00    +0.000 C 
ATOM     18  H   UNL     1     -10.096  11.296   4.681  0.00  0.00    +0.000 HD
ATOM     19  H   UNL     1     -10.367  12.412   6.009  0.00  0.00    +0.000 HD
ATOM     20  H   UNL     1      -9.968  13.039   4.398  0.00  0.00    +0.000 HD
ENDBRANCH   1  17
BRANCH   4  21
ATOM     21  C   UNL     1      -8.755  11.214   7.746  0.00  0.00    +0.000 C 
ATOM     22  C   UNL     1      -8.186  10.313   8.539  0.00  0.00    +0.000 C 
ATOM     23  H   UNL     1      -9.836  11.279   7.678  0.00  0.00    +0.000 HD
ATOM     24  H   UNL     1      -7.114  10.177   8.621  0.00  0.00    +0.000 HD
BRANCH  22  26
ATOM     25  O   UNL     1     -10.259   9.335   9.190  0.00  0.00    +0.000 OA
ATOM     26  C   UNL     1      -9.035   9.356   9.302  0.00  0.00    +0.000 C 
BRANCH  26  27
ATOM     27  C   UNL     1      -8.325   8.414  10.238  0.00  0.00    +0.000 C 
ATOM     28  H   UNL     1      -7.548   8.964  10.777  0.00  0.00    +0.000 HD
ATOM     29  H   UNL     1      -9.011   7.993  10.978  0.00  0.00    +0.000 HD
ATOM     30  H   UNL     1      -7.876   7.602   9.662  0.00  0.00    +0.000 HD
ENDBRANCH  26  27
ENDBRANCH  22  26
ENDBRANCH   4  21
BRANCH   6  31
ATOM     31  C   UNL     1      -6.791  13.098   9.040  0.00  0.00    +0.000 C 
ATOM     32  H   UNL     1      -7.144  12.204   9.562  0.00  0.00    +0.000 HD
ATOM     33  H   UNL     1      -7.210  13.994   9.505  0.00  0.00    +0.000 HD
ATOM     34  H   UNL     1      -5.709  13.173   9.208  0.00  0.00    +0.000 HD
ENDBRANCH   6  31
TORSDOF 6
ENDMDL
MODEL 6
REMARK VINA RESULT:    -5.219     14.296     15.930
REMARK INTER + INTRA:          -6.686
REMARK INTER:                  -6.434
REMARK INTRA:                  -0.252
REMARK UNBOUND:                -0.247
REMARK  Name = 638014
REMARK  6 active torsions:
REMARK  status: ('A' for Active; 'I' for Inactive)
REMARK    1  A    between atoms: C_2  and  C_8
REMARK    2  A    between atoms: C_2  and  C_9
REMARK    3  A    between atoms: C_5  and  C_10
REMARK    4  A    between atoms: C_7  and  C_11
REMARK    5  A    between atoms: C_12  and  C_13
REMARK    6  A    between atoms: C_13  and  C_14
REMARK                            x       y       z     vdW  Elec       q    Type
REMARK                         _______ _______ _______ _____ _____    ______ ____
ROOT
ATOM      1  C   UNL     1      -7.325  13.176   7.895  0.00  0.00    +0.000 C 
ATOM      2  C   UNL     1      -6.214  14.130   7.376  0.00  0.00    +0.000 C 
ATOM      3  C   UNL     1      -6.465  14.583   5.949  0.00  0.00    +0.000 C 
ATOM      4  C   UNL     1      -7.699  12.110   6.838  0.00  0.00    +0.000 C 
ATOM      5  C   UNL     1      -6.504  13.380   5.020  0.00  0.00    +0.000 C 
ATOM      6  C   UNL     1      -7.298  12.201   5.544  0.00  0.00    +0.000 C 
ATOM      7  H   UNL     1      -5.239  13.624   7.415  0.00  0.00    +0.000 HD
ATOM      8  H   UNL     1      -6.128  15.009   8.028  0.00  0.00    +0.000 HD
ATOM      9  H   UNL     1      -5.673  15.269   5.629  0.00  0.00    +0.000 HD
ATOM     10  H   UNL     1      -7.406  15.142   5.883  0.00  0.00    +0.000 HD
ATOM     11  H   UNL     1      -5.479  13.043   4.824  0.00  0.00    +0.000 HD
ATOM     12  H   UNL     1      -6.921  13.708   4.058  0.00  0.00    +0.000 HD
ENDROOT
BRANCH   1  13
ATOM     13  C   UNL     1      -8.577  14.010   8.253  0.00  0.00    +0.000 C 
ATOM     14  H   UNL     1      -9.384  13.385   8.650  0.00  0.00    +0.000 HD
ATOM     15  H   UNL     1      -8.350  14.768   9.011  0.00  0.00    +0.000 HD
ATOM     16  H   UNL     1      -8.965  14.538   7.374  0.00  0.00    +0.000 HD
ENDBRANCH   1  13
BRANCH   1  17
ATOM     17  C   UNL     1      -6.770  12.540   9.192  0.00  0.00    +0.000 C 
ATOM     18  H   UNL     1      -5.739  12.867   9.378  0.00  0.00    +0.000 HD
ATOM     19  H   UNL     1      -7.349  12.827  10.077  0.00  0.00    +0.000 HD
ATOM     20  H   UNL     1      -6.764  11.445   9.130  0.00  0.00    +0.000 HD
ENDBRANCH   1  17
BRANCH   4  21
ATOM     21  C   UNL     1      -8.530  11.016   7.314  0.00  0.00    +0.000 C 
ATOM     22  C   UNL     1      -9.851  11.012   7.173  0.00  0.00    +0.000 C 
ATOM     23  H   UNL     1      -8.025  10.168   7.765  0.00  0.00    +0.000 HD
ATOM     24  H   UNL     1     -10.414  11.842   6.763  0.00  0.00    +0.000 HD
BRANCH  22  26
ATOM     25  O   UNL     1     -11.524   9.324   7.009  0.00  0.00    +0.000 OA
ATOM     26  C   UNL     1     -10.647   9.861   7.682  0.00  0.00    +0.000 C 
BRANCH  26  27
ATOM     27  C   UNL     1     -10.340   9.386   9.078  0.00  0.00    +0.000 C 
ATOM     28  H   UNL     1      -9.264   9.466   9.255  0.00  0.00    +0.000 HD
ATOM     29  H   UNL     1     -10.849   9.996   9.829  0.00  0.00    +0.000 HD
ATOM     30  H   UNL     1     -10.659   8.347   9.184  0.00  0.00    +0.000 HD
ENDBRANCH  26  27
ENDBRANCH  22  26
ENDBRANCH   4  21
BRANCH   6  31
ATOM     31  C   UNL     1      -7.572  11.183   4.461  0.00  0.00    +0.000 C 
ATOM     32  H   UNL     1      -7.783  11.678   3.509  0.00  0.00    +0.000 HD
ATOM     33  H   UNL     1      -8.377  10.486   4.709  0.00  0.00    +0.000 HD
ATOM     34  H   UNL     1      -6.688  10.550   4.315  0.00  0.00    +0.000 HD
ENDBRANCH   6  31
TORSDOF 6
ENDMDL
MODEL 7
REMARK VINA RESULT:    -4.975     28.148     29.803
REMARK INTER + INTRA:          -6.385
REMARK INTER:                  -6.316
REMARK INTRA:                  -0.068
REMARK UNBOUND:                -0.247
REMARK  Name = 638014
REMARK  6 active torsions:
REMARK  status: ('A' for Active; 'I' for Inactive)
REMARK    1  A    between atoms: C_2  and  C_8
REMARK    2  A    between atoms: C_2  and  C_9
REMARK    3  A    between atoms: C_5  and  C_10
REMARK    4  A    between atoms: C_7  and  C_11
REMARK    5  A    between atoms: C_12  and  C_13
REMARK    6  A    between atoms: C_13  and  C_14
REMARK                            x       y       z     vdW  Elec       q    Type
REMARK                         _______ _______ _______ _____ _____    ______ ____
ROOT
ATOM      1  C   UNL     1     -21.482  -3.035   5.336  0.00  0.00    +0.000 C 
ATOM      2  C   UNL     1     -20.784  -3.001   6.724  0.00  0.00    +0.000 C 
ATOM      3  C   UNL     1     -20.956  -1.664   7.421  0.00  0.00    +0.000 C 
ATOM      4  C   UNL     1     -21.209  -1.743   4.531  0.00  0.00    +0.000 C 
ATOM      5  C   UNL     1     -20.348  -0.554   6.578  0.00  0.00    +0.000 C 
ATOM      6  C   UNL     1     -20.671  -0.635   5.100  0.00  0.00    +0.000 C 
ATOM      7  H   UNL     1     -19.709  -3.198   6.607  0.00  0.00    +0.000 HD
ATOM      8  H   UNL     1     -21.173  -3.801   7.368  0.00  0.00    +0.000 HD
ATOM      9  H   UNL     1     -20.470  -1.688   8.403  0.00  0.00    +0.000 HD
ATOM     10  H   UNL     1     -22.018  -1.460   7.606  0.00  0.00    +0.000 HD
ATOM     11  H   UNL     1     -19.257  -0.572   6.692  0.00  0.00    +0.000 HD
ATOM     12  H   UNL     1     -20.695   0.406   6.980  0.00  0.00    +0.000 HD
ENDROOT
BRANCH   1  13
ATOM     13  C   UNL     1     -23.005  -3.203   5.543  0.00  0.00    +0.000 C 
ATOM     14  H   UNL     1     -23.311  -2.929   6.559  0.00  0.00    +0.000 HD
ATOM     15  H   UNL     1     -23.576  -2.572   4.851  0.00  0.00    +0.000 HD
ATOM     16  H   UNL     1     -23.317  -4.238   5.367  0.00  0.00    +0.000 HD
ENDBRANCH   1  13
BRANCH   1  17
ATOM     17  C   UNL     1     -20.942  -4.294   4.617  0.00  0.00    +0.000 C 
ATOM     18  H   UNL     1     -20.319  -4.894   5.294  0.00  0.00    +0.000 HD
ATOM     19  H   UNL     1     -21.745  -4.954   4.271  0.00  0.00    +0.000 HD
ATOM     20  H   UNL     1     -20.324  -4.026   3.751  0.00  0.00    +0.000 HD
ENDBRANCH   1  17
BRANCH   4  21
ATOM     21  C   UNL     1     -21.591  -1.783   3.128  0.00  0.00    +0.000 C 
ATOM     22  C   UNL     1     -20.744  -2.147   2.170  0.00  0.00    +0.000 C 
ATOM     23  H   UNL     1     -22.618  -1.535   2.885  0.00  0.00    +0.000 HD
ATOM     24  H   UNL     1     -19.699  -2.372   2.346  0.00  0.00    +0.000 HD
BRANCH  22  26
ATOM     25  O   UNL     1     -22.249  -2.702   0.408  0.00  0.00    +0.000 OA
ATOM     26  C   UNL     1     -21.197  -2.168   0.751  0.00  0.00    +0.000 C 
BRANCH  26  27
ATOM     27  C   UNL     1     -20.292  -1.514  -0.260  0.00  0.00    +0.000 C 
ATOM     28  H   UNL     1     -19.571  -0.879   0.263  0.00  0.00    +0.000 HD
ATOM     29  H   UNL     1     -19.731  -2.256  -0.834  0.00  0.00    +0.000 HD
ATOM     30  H   UNL     1     -20.894  -0.911  -0.944  0.00  0.00    +0.000 HD
ENDBRANCH  26  27
ENDBRANCH  22  26
ENDBRANCH   4  21
BRANCH   6  31
ATOM     31  C   UNL     1     -20.323   0.648   4.380  0.00  0.00    +0.000 C 
ATOM     32  H   UNL     1     -20.817   1.503   4.850  0.00  0.00    +0.000 HD
ATOM     33  H   UNL     1     -20.550   0.625   3.310  0.00  0.00    +0.000 HD
ATOM     34  H   UNL     1     -19.241   0.822   4.433  0.00  0.00    +0.000 HD
ENDBRANCH   6  31
TORSDOF 6
ENDMDL
MODEL 8
REMARK VINA RESULT:    -4.859     16.008     17.388
REMARK INTER + INTRA:          -6.243
REMARK INTER:                  -6.045
REMARK INTRA:                  -0.197
REMARK UNBOUND:                -0.247
REMARK  Name = 638014
REMARK  6 active torsions:
REMARK  status: ('A' for Active; 'I' for Inactive)
REMARK    1  A    between atoms: C_2  and  C_8
REMARK    2  A    between atoms: C_2  and  C_9
REMARK    3  A    between atoms: C_5  and  C_10
REMARK    4  A    between atoms: C_7  and  C_11
REMARK    5  A    between atoms: C_12  and  C_13
REMARK    6  A    between atoms: C_13  and  C_14
REMARK                            x       y       z     vdW  Elec       q    Type
REMARK                         _______ _______ _______ _____ _____    ______ ____
ROOT
ATOM      1  C   UNL     1      -2.994   7.803 -10.936  0.00  0.00    +0.000 C 
ATOM      2  C   UNL     1      -2.993   7.856  -9.383  0.00  0.00    +0.000 C 
ATOM      3  C   UNL     1      -3.518   6.573  -8.764  0.00  0.00    +0.000 C 
ATOM      4  C   UNL     1      -4.310   7.205 -11.484  0.00  0.00    +0.000 C 
ATOM      5  C   UNL     1      -4.950   6.326  -9.211  0.00  0.00    +0.000 C 
ATOM      6  C   UNL     1      -5.201   6.561 -10.687  0.00  0.00    +0.000 C 
ATOM      7  H   UNL     1      -3.619   8.691  -9.037  0.00  0.00    +0.000 HD
ATOM      8  H   UNL     1      -1.982   8.055  -9.006  0.00  0.00    +0.000 HD
ATOM      9  H   UNL     1      -3.481   6.643  -7.671  0.00  0.00    +0.000 HD
ATOM     10  H   UNL     1      -2.883   5.724  -9.043  0.00  0.00    +0.000 HD
ATOM     11  H   UNL     1      -5.623   6.979  -8.641  0.00  0.00    +0.000 HD
ATOM     12  H   UNL     1      -5.213   5.293  -8.951  0.00  0.00    +0.000 HD
ENDROOT
BRANCH   1  13
ATOM     13  C   UNL     1      -1.799   6.944 -11.409  0.00  0.00    +0.000 C 
ATOM     14  H   UNL     1      -1.938   6.580 -12.433  0.00  0.00    +0.000 HD
ATOM     15  H   UNL     1      -0.863   7.514 -11.392  0.00  0.00    +0.000 HD
ATOM     16  H   UNL     1      -1.657   6.071 -10.761  0.00  0.00    +0.000 HD
ENDBRANCH   1  13
BRANCH   1  17
ATOM     17  C   UNL     1      -2.773   9.259 -11.413  0.00  0.00    +0.000 C 
ATOM     18  H   UNL     1      -1.702   9.487 -11.489  0.00  0.00    +0.000 HD
ATOM     19  H   UNL     1      -3.199   9.441 -12.405  0.00  0.00    +0.000 HD
ATOM     20  H   UNL     1      -3.215   9.979 -10.714  0.00  0.00    +0.000 HD
ENDBRANCH   1  17
BRANCH   4  21
ATOM     21  C   UNL     1      -4.522   7.354 -12.915  0.00  0.00    +0.000 C 
ATOM     22  C   UNL     1      -4.200   6.401 -13.784  0.00  0.00    +0.000 C 
ATOM     23  H   UNL     1      -4.992   8.269 -13.255  0.00  0.00    +0.000 HD
ATOM     24  H   UNL     1      -3.697   5.482 -13.510  0.00  0.00    +0.000 HD
BRANCH  22  26
ATOM     25  O   UNL     1      -5.419   7.232 -15.655  0.00  0.00    +0.000 OA
ATOM     26  C   UNL     1      -4.441   6.614 -15.239  0.00  0.00    +0.000 C 
BRANCH  26  27
ATOM     27  C   UNL     1      -3.435   6.021 -16.189  0.00  0.00    +0.000 C 
ATOM     28  H   UNL     1      -3.586   6.451 -17.184  0.00  0.00    +0.000 HD
ATOM     29  H   UNL     1      -2.411   6.244 -15.879  0.00  0.00    +0.000 HD
ATOM     30  H   UNL     1      -3.571   4.937 -16.227  0.00  0.00    +0.000 HD
ENDBRANCH  26  27
ENDBRANCH  22  26
ENDBRANCH   4  21
BRANCH   6  31
ATOM     31  C   UNL     1      -6.531   5.994 -11.127  0.00  0.00    +0.000 C 
ATOM     32  H   UNL     1      -6.544   5.832 -12.208  0.00  0.00    +0.000 HD
ATOM     33  H   UNL     1      -7.387   6.604 -10.828  0.00  0.00    +0.000 HD
ATOM     34  H   UNL     1      -6.697   5.022 -10.646  0.00  0.00    +0.000 HD
ENDBRANCH   6  31
TORSDOF 6
ENDMDL
MODEL 9
REMARK VINA RESULT:    -4.822     15.153     17.221
REMARK INTER + INTRA:          -6.197
REMARK INTER:                  -5.950
REMARK INTRA:                  -0.247
REMARK UNBOUND:                -0.247
REMARK  Name = 638014
REMARK  6 active torsions:
REMARK  status: ('A' for Active; 'I' for Inactive)
REMARK    1  A    between atoms: C_2  and  C_8
REMARK    2  A    between atoms: C_2  and  C_9
REMARK    3  A    between atoms: C_5  and  C_10
REMARK    4  A    between atoms: C_7  and  C_11
REMARK    5  A    between atoms: C_12  and  C_13
REMARK    6  A    between atoms: C_13  and  C_14
REMARK                            x       y       z     vdW  Elec       q    Type
REMARK                         _______ _______ _______ _____ _____    ______ ____
ROOT
ATOM      1  C   UNL     1      12.861  -3.780   7.093  0.00  0.00    +0.000 C 
ATOM      2  C   UNL     1      14.274  -3.469   6.525  0.00  0.00    +0.000 C 
ATOM      3  C   UNL     1      14.821  -4.612   5.689  0.00  0.00    +0.000 C 
ATOM      4  C   UNL     1      12.781  -5.215   7.664  0.00  0.00    +0.000 C 
ATOM      5  C   UNL     1      14.937  -5.869   6.538  0.00  0.00    +0.000 C 
ATOM      6  C   UNL     1      13.742  -6.144   7.427  0.00  0.00    +0.000 C 
ATOM      7  H   UNL     1      14.974  -3.274   7.349  0.00  0.00    +0.000 HD
ATOM      8  H   UNL     1      14.251  -2.554   5.919  0.00  0.00    +0.000 HD
ATOM      9  H   UNL     1      15.807  -4.346   5.291  0.00  0.00    +0.000 HD
ATOM     10  H   UNL     1      14.176  -4.800   4.823  0.00  0.00    +0.000 HD
ATOM     11  H   UNL     1      15.827  -5.793   7.175  0.00  0.00    +0.000 HD
ATOM     12  H   UNL     1      15.100  -6.720   5.864  0.00  0.00    +0.000 HD
ENDROOT
BRANCH   1  13
ATOM     13  C   UNL     1      11.818  -3.614   5.963  0.00  0.00    +0.000 C 
ATOM     14  H   UNL     1      12.129  -4.119   5.043  0.00  0.00    +0.000 HD
ATOM     15  H   UNL     1      10.846  -4.032   6.251  0.00  0.00    +0.000 HD
ATOM     16  H   UNL     1      11.657  -2.556   5.726  0.00  0.00    +0.000 HD
ENDBRANCH   1  13
BRANCH   1  17
ATOM     17  C   UNL     1      12.591  -2.707   8.174  0.00  0.00    +0.000 C 
ATOM     18  H   UNL     1      13.017  -1.739   7.880  0.00  0.00    +0.000 HD
ATOM     19  H   UNL     1      11.520  -2.536   8.333  0.00  0.00    +0.000 HD
ATOM     20  H   UNL     1      13.038  -2.986   9.136  0.00  0.00    +0.000 HD
ENDBRANCH   1  17
BRANCH   4  21
ATOM     21  C   UNL     1      11.595  -5.513   8.452  0.00  0.00    +0.000 C 
ATOM     22  C   UNL     1      10.577  -6.216   7.967  0.00  0.00    +0.000 C 
ATOM     23  H   UNL     1      11.582  -5.169   9.480  0.00  0.00    +0.000 HD
ATOM     24  H   UNL     1      10.517  -6.556   6.940  0.00  0.00    +0.000 HD
BRANCH  22  26
ATOM     25  O   UNL     1       8.577  -7.370   8.555  0.00  0.00    +0.000 OA
ATOM     26  C   UNL     1       9.390  -6.488   8.825  0.00  0.00    +0.000 C 
BRANCH  26  27
ATOM     27  C   UNL     1       9.217  -5.619  10.042  0.00  0.00    +0.000 C 
ATOM     28  H   UNL     1      10.191  -5.470  10.517  0.00  0.00    +0.000 HD
ATOM     29  H   UNL     1       8.819  -4.635   9.778  0.00  0.00    +0.000 HD
ATOM     30  H   UNL     1       8.533  -6.107  10.740  0.00  0.00    +0.000 HD
ENDBRANCH  26  27
ENDBRANCH  22  26
ENDBRANCH   4  21
BRANCH   6  31
ATOM     31  C   UNL     1      13.770  -7.548   7.986  0.00  0.00    +0.000 C 
ATOM     32  H   UNL     1      12.804  -8.041   7.844  0.00  0.00    +0.000 HD
ATOM     33  H   UNL     1      14.063  -7.594   9.038  0.00  0.00    +0.000 HD
ATOM     34  H   UNL     1      14.525  -8.143   7.457  0.00  0.00    +0.000 HD
ENDBRANCH   6  31
TORSDOF 6
ENDMDL
MODEL 10
REMARK VINA RESULT:    -4.781     29.764     31.522
REMARK INTER + INTRA:          -6.145
REMARK INTER:                  -5.897
REMARK INTRA:                  -0.248
REMARK UNBOUND:                -0.247
REMARK  Name = 638014
REMARK  6 active torsions:
REMARK  status: ('A' for Active; 'I' for Inactive)
REMARK    1  A    between atoms: C_2  and  C_8
REMARK    2  A    between atoms: C_2  and  C_9
REMARK    3  A    between atoms: C_5  and  C_10
REMARK    4  A    between atoms: C_7  and  C_11
REMARK    5  A    between atoms: C_12  and  C_13
REMARK    6  A    between atoms: C_13  and  C_14
REMARK                            x       y       z     vdW  Elec       q    Type
REMARK                         _______ _______ _______ _____ _____    ______ ____
ROOT
ATOM      1  C   UNL     1     -21.227  -1.921   5.359  0.00  0.00    +0.000 C 
ATOM      2  C   UNL     1     -20.431  -0.847   6.150  0.00  0.00    +0.000 C 
ATOM      3  C   UNL     1     -20.661  -0.947   7.647  0.00  0.00    +0.000 C 
ATOM      4  C   UNL     1     -22.680  -2.046   5.874  0.00  0.00    +0.000 C 
ATOM      5  C   UNL     1     -22.135  -0.747   7.962  0.00  0.00    +0.000 C 
ATOM      6  C   UNL     1     -23.085  -1.487   7.043  0.00  0.00    +0.000 C 
ATOM      7  H   UNL     1     -20.727   0.158   5.819  0.00  0.00    +0.000 HD
ATOM      8  H   UNL     1     -19.357  -0.934   5.940  0.00  0.00    +0.000 HD
ATOM      9  H   UNL     1     -20.067  -0.189   8.169  0.00  0.00    +0.000 HD
ATOM     10  H   UNL     1     -20.323  -1.921   8.024  0.00  0.00    +0.000 HD
ATOM     11  H   UNL     1     -22.372   0.323   7.910  0.00  0.00    +0.000 HD
ATOM     12  H   UNL     1     -22.306  -1.060   9.000  0.00  0.00    +0.000 HD
ENDROOT
BRANCH   1  13
ATOM     13  C   UNL     1     -20.509  -3.283   5.499  0.00  0.00    +0.000 C 
ATOM     14  H   UNL     1     -21.209  -4.123   5.424  0.00  0.00    +0.000 HD
ATOM     15  H   UNL     1     -19.753  -3.420   4.717  0.00  0.00    +0.000 HD
ATOM     16  H   UNL     1     -19.995  -3.362   6.463  0.00  0.00    +0.000 HD
ENDBRANCH   1  13
BRANCH   1  17
ATOM     17  C   UNL     1     -21.171  -1.486   3.874  0.00  0.00    +0.000 C 
ATOM     18  H   UNL     1     -20.155  -1.178   3.595  0.00  0.00    +0.000 HD
ATOM     19  H   UNL     1     -21.446  -2.298   3.192  0.00  0.00    +0.000 HD
ATOM     20  H   UNL     1     -21.839  -0.638   3.681  0.00  0.00    +0.000 HD
ENDBRANCH   1  17
BRANCH   4  21
ATOM     21  C   UNL     1     -23.580  -2.825   5.038  0.00  0.00    +0.000 C 
ATOM     22  C   UNL     1     -23.807  -4.117   5.248  0.00  0.00    +0.000 C 
ATOM     23  H   UNL     1     -24.098  -2.300   4.243  0.00  0.00    +0.000 HD
ATOM     24  H   UNL     1     -23.295  -4.702   6.002  0.00  0.00    +0.000 HD
BRANCH  22  26
ATOM     25  O   UNL     1     -25.704  -5.484   4.793  0.00  0.00    +0.000 OA
ATOM     26  C   UNL     1     -24.740  -4.859   4.356  0.00  0.00    +0.000 C 
BRANCH  26  27
ATOM     27  C   UNL     1     -24.441  -4.826   2.880  0.00  0.00    +0.000 C 
ATOM     28  H   UNL     1     -23.457  -4.375   2.725  0.00  0.00    +0.000 HD
ATOM     29  H   UNL     1     -24.420  -5.832   2.454  0.00  0.00    +0.000 HD
ATOM     30  H   UNL     1     -25.207  -4.236   2.371  0.00  0.00    +0.000 HD
ENDBRANCH  26  27
ENDBRANCH  22  26
ENDBRANCH   4  21
BRANCH   6  31
ATOM     31  C   UNL     1     -24.492  -1.515   7.595  0.00  0.00    +0.000 C 
ATOM     32  H   UNL     1     -24.586  -0.838   8.448  0.00  0.00    +0.000 HD
ATOM     33  H   UNL     1     -24.834  -2.516   7.870  0.00  0.00    +0.000 HD
ATOM     34  H   UNL     1     -25.198  -1.178   6.826  0.00  0.00    +0.000 HD
ENDBRANCH   6  31
TORSDOF 6
ENDMDL
