MODEL 1
REMARK VINA RESULT:    -5.445      0.000      0.000
REMARK INTER + INTRA:          -6.356
REMARK INTER:                  -6.212
REMARK INTRA:                  -0.143
REMARK UNBOUND:                -0.114
REMARK  Name = 249286
REMARK  4 active torsions:
REMARK  status: ('A' for Active; 'I' for Inactive)
REMARK    1  A    between atoms: C_2  and  C_7
REMARK    2  A    between atoms: C_5  and  C_9
REMARK    3  A    between atoms: C_7  and  C_10
REMARK    4  A    between atoms: C_7  and  C_11
REMARK                            x       y       z     vdW  Elec       q    Type
REMARK                         _______ _______ _______ _____ _____    ______ ____
ROOT
ATOM      1  O   UNL     1      -3.130   8.847  -8.133  0.00  0.00    +0.000 OA
ATOM      2  C   UNL     1      -3.092   6.821 -10.981  0.00  0.00    +0.000 C 
ATOM      3  C   UNL     1      -1.874   7.786 -11.206  0.00  0.00    +0.000 C 
ATOM      4  C   UNL     1      -2.246   6.760 -12.204  0.00  0.00    +0.000 C 
ATOM      5  C   UNL     1      -2.391   8.994 -10.482  0.00  0.00    +0.000 C 
ATOM      6  C   UNL     1      -3.084   6.805  -9.487  0.00  0.00    +0.000 C 
ATOM      7  C   UNL     1      -2.907   8.302  -9.203  0.00  0.00    +0.000 C 
ATOM      8  H   UNL     1      -0.899   7.537 -10.777  0.00  0.00    +0.000 HD
ATOM      9  H   UNL     1      -1.604   5.881 -12.283  0.00  0.00    +0.000 HD
ATOM     10  H   UNL     1      -2.321   7.201 -13.188  0.00  0.00    +0.000 HD
ATOM     11  H   UNL     1      -3.214   9.481 -11.014  0.00  0.00    +0.000 HD
ATOM     12  H   UNL     1      -2.213   6.265  -9.100  0.00  0.00    +0.000 HD
ATOM     13  H   UNL     1      -3.969   6.435  -8.973  0.00  0.00    +0.000 HD
ENDROOT
BRANCH   5  14
ATOM     14  C   UNL     1      -1.309  10.011 -10.175  0.00  0.00    +0.000 C 
ATOM     15  H   UNL     1      -0.397   9.787 -10.740  0.00  0.00    +0.000 HD
ATOM     16  H   UNL     1      -1.618  11.027 -10.445  0.00  0.00    +0.000 HD
ATOM     17  H   UNL     1      -1.063  10.007  -9.108  0.00  0.00    +0.000 HD
ENDBRANCH   5  14
BRANCH   2  18
ATOM     18  C   UNL     1      -4.503   7.121 -11.449  0.00  0.00    +0.000 C 
ATOM     19  H   UNL     1      -4.740   8.188 -11.362  0.00  0.00    +0.000 HD
BRANCH  18  20
ATOM     20  C   UNL     1      -4.681   6.749 -12.922  0.00  0.00    +0.000 C 
ATOM     21  H   UNL     1      -3.958   6.011 -13.287  0.00  0.00    +0.000 HD
ATOM     22  H   UNL     1      -5.660   6.264 -13.044  0.00  0.00    +0.000 HD
ATOM     23  H   UNL     1      -4.744   7.624 -13.580  0.00  0.00    +0.000 HD
ENDBRANCH  18  20
BRANCH  18  24
ATOM     24  C   UNL     1      -5.532   6.384 -10.589  0.00  0.00    +0.000 C 
ATOM     25  H   UNL     1      -6.442   6.159 -11.155  0.00  0.00    +0.000 HD
ATOM     26  H   UNL     1      -5.822   6.991  -9.722  0.00  0.00    +0.000 HD
ATOM     27  H   UNL     1      -5.142   5.451 -10.174  0.00  0.00    +0.000 HD
ENDBRANCH  18  24
ENDBRANCH   2  18
TORSDOF 4
ENDMDL
MODEL 2
REMARK VINA RESULT:    -5.397      1.962      4.050
REMARK INTER + INTRA:          -6.300
REMARK INTER:                  -6.160
REMARK INTRA:                  -0.140
REMARK UNBOUND:                -0.114
REMARK  Name = 249286
REMARK  4 active torsions:
REMARK  status: ('A' for Active; 'I' for Inactive)
REMARK    1  A    between atoms: C_2  and  C_7
REMARK    2  A    between atoms: C_5  and  C_9
REMARK    3  A    between atoms: C_7  and  C_10
REMARK    4  A    between atoms: C_7  and  C_11
REMARK                            x       y       z     vdW  Elec       q    Type
REMARK                         _______ _______ _______ _____ _____    ______ ____
ROOT
ATOM      1  O   UNL     1      -3.346   7.022 -13.527  0.00  0.00    +0.000 OA
ATOM      2  C   UNL     1      -2.778   7.443 -10.105  0.00  0.00    +0.000 C 
ATOM      3  C   UNL     1      -4.119   6.627 -10.152  0.00  0.00    +0.000 C 
ATOM      4  C   UNL     1      -3.514   7.054  -8.872  0.00  0.00    +0.000 C 
ATOM      5  C   UNL     1      -4.667   7.147 -11.448  0.00  0.00    +0.000 C 
ATOM      6  C   UNL     1      -2.174   6.945 -11.377  0.00  0.00    +0.000 C 
ATOM      7  C   UNL     1      -3.391   7.040 -12.308  0.00  0.00    +0.000 C 
ATOM      8  H   UNL     1      -4.086   5.536 -10.222  0.00  0.00    +0.000 HD
ATOM      9  H   UNL     1      -3.033   6.287  -8.264  0.00  0.00    +0.000 HD
ATOM     10  H   UNL     1      -4.251   7.548  -8.253  0.00  0.00    +0.000 HD
ATOM     11  H   UNL     1      -4.997   8.188 -11.377  0.00  0.00    +0.000 HD
ATOM     12  H   UNL     1      -1.876   5.894 -11.290  0.00  0.00    +0.000 HD
ATOM     13  H   UNL     1      -1.341   7.500 -11.803  0.00  0.00    +0.000 HD
ENDROOT
BRANCH   5  14
ATOM     14  C   UNL     1      -5.793   6.294 -12.001  0.00  0.00    +0.000 C 
ATOM     15  H   UNL     1      -6.026   6.582 -13.032  0.00  0.00    +0.000 HD
ATOM     16  H   UNL     1      -5.528   5.231 -12.011  0.00  0.00    +0.000 HD
ATOM     17  H   UNL     1      -6.699   6.408 -11.397  0.00  0.00    +0.000 HD
ENDBRANCH   5  14
BRANCH   2  18
ATOM     18  C   UNL     1      -2.713   8.959 -10.107  0.00  0.00    +0.000 C 
ATOM     19  H   UNL     1      -3.519   9.398 -10.706  0.00  0.00    +0.000 HD
BRANCH  18  20
ATOM     20  C   UNL     1      -2.866   9.514  -8.689  0.00  0.00    +0.000 C 
ATOM     21  H   UNL     1      -3.906   9.680  -8.384  0.00  0.00    +0.000 HD
ATOM     22  H   UNL     1      -2.483   8.768  -7.978  0.00  0.00    +0.000 HD
ATOM     23  H   UNL     1      -2.237  10.392  -8.503  0.00  0.00    +0.000 HD
ENDBRANCH  18  20
BRANCH  18  24
ATOM     24  C   UNL     1      -1.403   9.448 -10.728  0.00  0.00    +0.000 C 
ATOM     25  H   UNL     1      -0.604   8.708 -10.618  0.00  0.00    +0.000 HD
ATOM     26  H   UNL     1      -1.066  10.374 -10.247  0.00  0.00    +0.000 HD
ATOM     27  H   UNL     1      -1.506   9.691 -11.790  0.00  0.00    +0.000 HD
ENDBRANCH  18  24
ENDBRANCH   2  18
TORSDOF 4
ENDMDL
MODEL 3
REMARK VINA RESULT:    -4.761      2.189      3.183
REMARK INTER + INTRA:          -5.571
REMARK INTER:                  -5.477
REMARK INTRA:                  -0.094
REMARK UNBOUND:                -0.114
REMARK  Name = 249286
REMARK  4 active torsions:
REMARK  status: ('A' for Active; 'I' for Inactive)
REMARK    1  A    between atoms: C_2  and  C_7
REMARK    2  A    between atoms: C_5  and  C_9
REMARK    3  A    between atoms: C_7  and  C_10
REMARK    4  A    between atoms: C_7  and  C_11
REMARK                            x       y       z     vdW  Elec       q    Type
REMARK                         _______ _______ _______ _____ _____    ______ ____
ROOT
ATOM      1  O   UNL     1      -2.639   8.696 -13.851  0.00  0.00    +0.000 OA
ATOM      2  C   UNL     1      -3.110   8.740 -10.388  0.00  0.00    +0.000 C 
ATOM      3  C   UNL     1      -1.686   9.377 -10.569  0.00  0.00    +0.000 C 
ATOM      4  C   UNL     1      -2.283   9.175  -9.231  0.00  0.00    +0.000 C 
ATOM      5  C   UNL     1      -1.256   8.650 -11.809  0.00  0.00    +0.000 C 
ATOM      6  C   UNL     1      -3.704   9.160 -11.694  0.00  0.00    +0.000 C 
ATOM      7  C   UNL     1      -2.546   8.813 -12.639  0.00  0.00    +0.000 C 
ATOM      8  H   UNL     1      -1.593  10.449 -10.766  0.00  0.00    +0.000 HD
ATOM      9  H   UNL     1      -2.645  10.060  -8.704  0.00  0.00    +0.000 HD
ATOM     10  H   UNL     1      -1.584   8.670  -8.578  0.00  0.00    +0.000 HD
ATOM     11  H   UNL     1      -1.049   7.592 -11.623  0.00  0.00    +0.000 HD
ATOM     12  H   UNL     1      -3.873  10.242 -11.723  0.00  0.00    +0.000 HD
ATOM     13  H   UNL     1      -4.613   8.664 -12.027  0.00  0.00    +0.000 HD
ENDROOT
BRANCH   5  14
ATOM     14  C   UNL     1      -0.063   9.292 -12.489  0.00  0.00    +0.000 C 
ATOM     15  H   UNL     1      -0.007  10.359 -12.247  0.00  0.00    +0.000 HD
ATOM     16  H   UNL     1       0.881   8.836 -12.170  0.00  0.00    +0.000 HD
ATOM     17  H   UNL     1      -0.135   9.188 -13.577  0.00  0.00    +0.000 HD
ENDBRANCH   5  14
BRANCH   2  18
ATOM     18  C   UNL     1      -3.352   7.254 -10.209  0.00  0.00    +0.000 C 
ATOM     19  H   UNL     1      -2.538   6.656 -10.637  0.00  0.00    +0.000 HD
BRANCH  18  20
ATOM     20  C   UNL     1      -3.433   6.888  -8.725  0.00  0.00    +0.000 C 
ATOM     21  H   UNL     1      -2.462   6.678  -8.262  0.00  0.00    +0.000 HD
ATOM     22  H   UNL     1      -3.823   7.755  -8.173  0.00  0.00    +0.000 HD
ATOM     23  H   UNL     1      -4.167   6.101  -8.518  0.00  0.00    +0.000 HD
ENDBRANCH  18  20
BRANCH  18  24
ATOM     24  C   UNL     1      -4.628   6.817 -10.932  0.00  0.00    +0.000 C 
ATOM     25  H   UNL     1      -5.524   7.215 -10.443  0.00  0.00    +0.000 HD
ATOM     26  H   UNL     1      -4.715   5.724 -10.944  0.00  0.00    +0.000 HD
ATOM     27  H   UNL     1      -4.642   7.123 -11.982  0.00  0.00    +0.000 HD
ENDBRANCH  18  24
ENDBRANCH   2  18
TORSDOF 4
ENDMDL
MODEL 4
REMARK VINA RESULT:    -4.726      2.400      4.214
REMARK INTER + INTRA:          -5.531
REMARK INTER:                  -5.490
REMARK INTRA:                  -0.042
REMARK UNBOUND:                -0.114
REMARK  Name = 249286
REMARK  4 active torsions:
REMARK  status: ('A' for Active; 'I' for Inactive)
REMARK    1  A    between atoms: C_2  and  C_7
REMARK    2  A    between atoms: C_5  and  C_9
REMARK    3  A    between atoms: C_7  and  C_10
REMARK    4  A    between atoms: C_7  and  C_11
REMARK                            x       y       z     vdW  Elec       q    Type
REMARK                         _______ _______ _______ _____ _____    ______ ____
ROOT
ATOM      1  O   UNL     1      -0.833   8.433 -14.395  0.00  0.00    +0.000 OA
ATOM      2  C   UNL     1      -1.789   7.753 -11.103  0.00  0.00    +0.000 C 
ATOM      3  C   UNL     1      -2.688   6.784 -11.949  0.00  0.00    +0.000 C 
ATOM      4  C   UNL     1      -2.787   6.846 -10.475  0.00  0.00    +0.000 C 
ATOM      5  C   UNL     1      -2.824   7.612 -13.193  0.00  0.00    +0.000 C 
ATOM      6  C   UNL     1      -0.619   7.830 -12.030  0.00  0.00    +0.000 C 
ATOM      7  C   UNL     1      -1.348   8.026 -13.366  0.00  0.00    +0.000 C 
ATOM      8  H   UNL     1      -2.301   5.805 -12.245  0.00  0.00    +0.000 HD
ATOM      9  H   UNL     1      -2.369   6.012  -9.909  0.00  0.00    +0.000 HD
ATOM     10  H   UNL     1      -3.818   6.964 -10.171  0.00  0.00    +0.000 HD
ATOM     11  H   UNL     1      -3.456   8.493 -13.044  0.00  0.00    +0.000 HD
ATOM     12  H   UNL     1      -0.072   6.881 -12.059  0.00  0.00    +0.000 HD
ATOM     13  H   UNL     1       0.101   8.632 -11.882  0.00  0.00    +0.000 HD
ENDROOT
BRANCH   5  14
ATOM     14  C   UNL     1      -3.329   6.818 -14.382  0.00  0.00    +0.000 C 
ATOM     15  H   UNL     1      -3.808   7.478 -15.114  0.00  0.00    +0.000 HD
ATOM     16  H   UNL     1      -2.516   6.295 -14.897  0.00  0.00    +0.000 HD
ATOM     17  H   UNL     1      -4.062   6.067 -14.065  0.00  0.00    +0.000 HD
ENDBRANCH   5  14
BRANCH   2  18
ATOM     18  C   UNL     1      -2.194   9.165 -10.725  0.00  0.00    +0.000 C 
ATOM     19  H   UNL     1      -2.999   9.541 -11.367  0.00  0.00    +0.000 HD
BRANCH  18  20
ATOM     20  C   UNL     1      -2.715   9.218  -9.287  0.00  0.00    +0.000 C 
ATOM     21  H   UNL     1      -2.366   8.394  -8.654  0.00  0.00    +0.000 HD
ATOM     22  H   UNL     1      -2.321  10.125  -8.807  0.00  0.00    +0.000 HD
ATOM     23  H   UNL     1      -3.802   9.349  -9.231  0.00  0.00    +0.000 HD
ENDBRANCH  18  20
BRANCH  18  24
ATOM     24  C   UNL     1      -1.022  10.134 -10.900  0.00  0.00    +0.000 C 
ATOM     25  H   UNL     1      -0.751  10.252 -11.955  0.00  0.00    +0.000 HD
ATOM     26  H   UNL     1      -0.134   9.771 -10.369  0.00  0.00    +0.000 HD
ATOM     27  H   UNL     1      -1.229  11.123 -10.482  0.00  0.00    +0.000 HD
ENDBRANCH  18  24
ENDBRANCH   2  18
TORSDOF 4
ENDMDL
MODEL 5
REMARK VINA RESULT:    -4.714      6.853      9.176
REMARK INTER + INTRA:          -5.517
REMARK INTER:                  -5.411
REMARK INTRA:                  -0.106
REMARK UNBOUND:                -0.114
REMARK  Name = 249286
REMARK  4 active torsions:
REMARK  status: ('A' for Active; 'I' for Inactive)
REMARK    1  A    between atoms: C_2  and  C_7
REMARK    2  A    between atoms: C_5  and  C_9
REMARK    3  A    between atoms: C_7  and  C_10
REMARK    4  A    between atoms: C_7  and  C_11
REMARK                            x       y       z     vdW  Elec       q    Type
REMARK                         _______ _______ _______ _____ _____    ______ ____
ROOT
ATOM      1  O   UNL     1     -10.596   2.570  -8.014  0.00  0.00    +0.000 OA
ATOM      2  C   UNL     1      -8.270   4.149  -5.937  0.00  0.00    +0.000 C 
ATOM      3  C   UNL     1      -9.256   3.465  -4.924  0.00  0.00    +0.000 C 
ATOM      4  C   UNL     1      -8.111   4.280  -4.464  0.00  0.00    +0.000 C 
ATOM      5  C   UNL     1     -10.513   3.523  -5.741  0.00  0.00    +0.000 C 
ATOM      6  C   UNL     1      -8.420   3.187  -7.071  0.00  0.00    +0.000 C 
ATOM      7  C   UNL     1      -9.947   3.027  -7.087  0.00  0.00    +0.000 C 
ATOM      8  H   UNL     1      -9.098   2.422  -4.635  0.00  0.00    +0.000 HD
ATOM      9  H   UNL     1      -7.257   3.750  -4.038  0.00  0.00    +0.000 HD
ATOM     10  H   UNL     1      -8.436   5.012  -3.738  0.00  0.00    +0.000 HD
ATOM     11  H   UNL     1     -10.903   4.541  -5.839  0.00  0.00    +0.000 HD
ATOM     12  H   UNL     1      -7.965   2.219  -6.833  0.00  0.00    +0.000 HD
ATOM     13  H   UNL     1      -8.073   3.494  -8.055  0.00  0.00    +0.000 HD
ENDROOT
BRANCH   5  14
ATOM     14  C   UNL     1     -11.604   2.608  -5.216  0.00  0.00    +0.000 C 
ATOM     15  H   UNL     1     -11.706   1.723  -5.854  0.00  0.00    +0.000 HD
ATOM     16  H   UNL     1     -11.386   2.257  -4.202  0.00  0.00    +0.000 HD
ATOM     17  H   UNL     1     -12.567   3.128  -5.192  0.00  0.00    +0.000 HD
ENDBRANCH   5  14
BRANCH   2  18
ATOM     18  C   UNL     1      -8.456   5.555  -6.476  0.00  0.00    +0.000 C 
ATOM     19  H   UNL     1      -9.465   5.705  -6.878  0.00  0.00    +0.000 HD
BRANCH  18  20
ATOM     20  C   UNL     1      -8.264   6.594  -5.369  0.00  0.00    +0.000 C 
ATOM     21  H   UNL     1      -7.250   6.624  -4.955  0.00  0.00    +0.000 HD
ATOM     22  H   UNL     1      -8.420   7.594  -5.798  0.00  0.00    +0.000 HD
ATOM     23  H   UNL     1      -9.027   6.529  -4.584  0.00  0.00    +0.000 HD
ENDBRANCH  18  20
BRANCH  18  24
ATOM     24  C   UNL     1      -7.491   5.829  -7.632  0.00  0.00    +0.000 C 
ATOM     25  H   UNL     1      -6.449   5.675  -7.331  0.00  0.00    +0.000 HD
ATOM     26  H   UNL     1      -7.586   6.864  -7.981  0.00  0.00    +0.000 HD
ATOM     27  H   UNL     1      -7.695   5.206  -8.507  0.00  0.00    +0.000 HD
ENDBRANCH  18  24
ENDBRANCH   2  18
TORSDOF 4
ENDMDL
MODEL 6
REMARK VINA RESULT:    -4.589      6.248      7.527
REMARK INTER + INTRA:          -5.374
REMARK INTER:                  -5.244
REMARK INTRA:                  -0.130
REMARK UNBOUND:                -0.114
REMARK  Name = 249286
REMARK  4 active torsions:
REMARK  status: ('A' for Active; 'I' for Inactive)
REMARK    1  A    between atoms: C_2  and  C_7
REMARK    2  A    between atoms: C_5  and  C_9
REMARK    3  A    between atoms: C_7  and  C_10
REMARK    4  A    between atoms: C_7  and  C_11
REMARK                            x       y       z     vdW  Elec       q    Type
REMARK                         _______ _______ _______ _____ _____    ______ ____
ROOT
ATOM      1  O   UNL     1     -10.288   7.909  -5.369  0.00  0.00    +0.000 OA
ATOM      2  C   UNL     1      -8.010   5.459  -6.381  0.00  0.00    +0.000 C 
ATOM      3  C   UNL     1      -8.109   6.403  -7.632  0.00  0.00    +0.000 C 
ATOM      4  C   UNL     1      -7.256   5.194  -7.636  0.00  0.00    +0.000 C 
ATOM      5  C   UNL     1      -9.527   6.866  -7.470  0.00  0.00    +0.000 C 
ATOM      6  C   UNL     1      -8.305   6.471  -5.321  0.00  0.00    +0.000 C 
ATOM      7  C   UNL     1      -9.500   7.191  -5.962  0.00  0.00    +0.000 C 
ATOM      8  H   UNL     1      -7.476   7.293  -7.691  0.00  0.00    +0.000 HD
ATOM      9  H   UNL     1      -6.177   5.342  -7.571  0.00  0.00    +0.000 HD
ATOM     10  H   UNL     1      -7.453   4.596  -8.515  0.00  0.00    +0.000 HD
ATOM     11  H   UNL     1     -10.253   6.074  -7.680  0.00  0.00    +0.000 HD
ATOM     12  H   UNL     1      -7.479   7.184  -5.212  0.00  0.00    +0.000 HD
ATOM     13  H   UNL     1      -8.579   6.113  -4.331  0.00  0.00    +0.000 HD
ENDROOT
BRANCH   5  14
ATOM     14  C   UNL     1      -9.850   8.089  -8.305  0.00  0.00    +0.000 C 
ATOM     15  H   UNL     1      -8.965   8.430  -8.852  0.00  0.00    +0.000 HD
ATOM     16  H   UNL     1     -10.631   7.881  -9.044  0.00  0.00    +0.000 HD
ATOM     17  H   UNL     1     -10.200   8.911  -7.670  0.00  0.00    +0.000 HD
ENDBRANCH   5  14
BRANCH   2  18
ATOM     18  C   UNL     1      -8.909   4.258  -6.158  0.00  0.00    +0.000 C 
ATOM     19  H   UNL     1      -9.962   4.500  -6.344  0.00  0.00    +0.000 HD
BRANCH  18  20
ATOM     20  C   UNL     1      -8.544   3.118  -7.111  0.00  0.00    +0.000 C 
ATOM     21  H   UNL     1      -9.196   3.042  -7.988  0.00  0.00    +0.000 HD
ATOM     22  H   UNL     1      -7.544   3.314  -7.523  0.00  0.00    +0.000 HD
ATOM     23  H   UNL     1      -8.426   2.155  -6.600  0.00  0.00    +0.000 HD
ENDBRANCH  18  20
BRANCH  18  24
ATOM     24  C   UNL     1      -8.831   3.780  -4.706  0.00  0.00    +0.000 C 
ATOM     25  H   UNL     1      -8.777   4.622  -4.007  0.00  0.00    +0.000 HD
ATOM     26  H   UNL     1      -7.940   3.161  -4.547  0.00  0.00    +0.000 HD
ATOM     27  H   UNL     1      -9.679   3.150  -4.425  0.00  0.00    +0.000 HD
ENDBRANCH  18  24
ENDBRANCH   2  18
TORSDOF 4
ENDMDL
MODEL 7
REMARK VINA RESULT:    -4.475      6.422      7.936
REMARK INTER + INTRA:          -5.243
REMARK INTER:                  -5.097
REMARK INTRA:                  -0.146
REMARK UNBOUND:                -0.114
REMARK  Name = 249286
REMARK  4 active torsions:
REMARK  status: ('A' for Active; 'I' for Inactive)
REMARK    1  A    between atoms: C_2  and  C_7
REMARK    2  A    between atoms: C_5  and  C_9
REMARK    3  A    between atoms: C_7  and  C_10
REMARK    4  A    between atoms: C_7  and  C_11
REMARK                            x       y       z     vdW  Elec       q    Type
REMARK                         _______ _______ _______ _____ _____    ______ ____
ROOT
ATOM      1  O   UNL     1      -8.298   2.976  -7.546  0.00  0.00    +0.000 OA
ATOM      2  C   UNL     1      -8.224   6.362  -6.683  0.00  0.00    +0.000 C 
ATOM      3  C   UNL     1      -8.340   5.636  -5.295  0.00  0.00    +0.000 C 
ATOM      4  C   UNL     1      -8.304   7.111  -5.400  0.00  0.00    +0.000 C 
ATOM      5  C   UNL     1      -9.115   4.425  -5.725  0.00  0.00    +0.000 C 
ATOM      6  C   UNL     1      -7.499   5.289  -7.430  0.00  0.00    +0.000 C 
ATOM      7  C   UNL     1      -8.307   4.061  -6.988  0.00  0.00    +0.000 C 
ATOM      8  H   UNL     1      -7.435   5.287  -4.789  0.00  0.00    +0.000 HD
ATOM      9  H   UNL     1      -7.385   7.613  -5.095  0.00  0.00    +0.000 HD
ATOM     10  H   UNL     1      -9.118   7.549  -4.839  0.00  0.00    +0.000 HD
ATOM     11  H   UNL     1     -10.151   4.661  -5.985  0.00  0.00    +0.000 HD
ATOM     12  H   UNL     1      -6.469   5.183  -7.072  0.00  0.00    +0.000 HD
ATOM     13  H   UNL     1      -7.479   5.344  -8.516  0.00  0.00    +0.000 HD
ENDROOT
BRANCH   5  14
ATOM     14  C   UNL     1      -9.088   3.309  -4.698  0.00  0.00    +0.000 C 
ATOM     15  H   UNL     1      -9.543   3.638  -3.757  0.00  0.00    +0.000 HD
ATOM     16  H   UNL     1      -9.645   2.430  -5.040  0.00  0.00    +0.000 HD
ATOM     17  H   UNL     1      -8.059   2.996  -4.492  0.00  0.00    +0.000 HD
ENDBRANCH   5  14
BRANCH   2  18
ATOM     18  C   UNL     1      -9.419   6.796  -7.510  0.00  0.00    +0.000 C 
ATOM     19  H   UNL     1     -10.247   6.081  -7.432  0.00  0.00    +0.000 HD
BRANCH  18  20
ATOM     20  C   UNL     1      -9.956   8.146  -7.027  0.00  0.00    +0.000 C 
ATOM     21  H   UNL     1     -10.196   8.175  -5.958  0.00  0.00    +0.000 HD
ATOM     22  H   UNL     1      -9.168   8.901  -7.156  0.00  0.00    +0.000 HD
ATOM     23  H   UNL     1     -10.779   8.524  -7.645  0.00  0.00    +0.000 HD
ENDBRANCH  18  20
BRANCH  18  24
ATOM     24  C   UNL     1      -9.057   6.871  -8.995  0.00  0.00    +0.000 C 
ATOM     25  H   UNL     1      -9.728   7.545  -9.539  0.00  0.00    +0.000 HD
ATOM     26  H   UNL     1      -9.130   5.883  -9.464  0.00  0.00    +0.000 HD
ATOM     27  H   UNL     1      -8.027   7.199  -9.161  0.00  0.00    +0.000 HD
ENDBRANCH  18  24
ENDBRANCH   2  18
TORSDOF 4
ENDMDL
MODEL 8
REMARK VINA RESULT:    -4.445      7.287      8.812
REMARK INTER + INTRA:          -5.208
REMARK INTER:                  -5.142
REMARK INTRA:                  -0.066
REMARK UNBOUND:                -0.114
REMARK  Name = 249286
REMARK  4 active torsions:
REMARK  status: ('A' for Active; 'I' for Inactive)
REMARK    1  A    between atoms: C_2  and  C_7
REMARK    2  A    between atoms: C_5  and  C_9
REMARK    3  A    between atoms: C_7  and  C_10
REMARK    4  A    between atoms: C_7  and  C_11
REMARK                            x       y       z     vdW  Elec       q    Type
REMARK                         _______ _______ _______ _____ _____    ______ ____
ROOT
ATOM      1  O   UNL     1     -12.066   6.136  -7.927  0.00  0.00    +0.000 OA
ATOM      2  C   UNL     1      -9.731   5.726  -5.358  0.00  0.00    +0.000 C 
ATOM      3  C   UNL     1      -9.097   6.854  -6.249  0.00  0.00    +0.000 C 
ATOM      4  C   UNL     1      -8.414   6.340  -5.042  0.00  0.00    +0.000 C 
ATOM      5  C   UNL     1      -9.643   6.437  -7.583  0.00  0.00    +0.000 C 
ATOM      6  C   UNL     1     -11.171   6.001  -5.650  0.00  0.00    +0.000 C 
ATOM      7  C   UNL     1     -11.107   6.181  -7.173  0.00  0.00    +0.000 C 
ATOM      8  H   UNL     1      -9.384   7.897  -6.087  0.00  0.00    +0.000 HD
ATOM      9  H   UNL     1      -8.399   6.985  -4.162  0.00  0.00    +0.000 HD
ATOM     10  H   UNL     1      -7.391   6.077  -5.272  0.00  0.00    +0.000 HD
ATOM     11  H   UNL     1      -9.181   5.518  -7.956  0.00  0.00    +0.000 HD
ATOM     12  H   UNL     1     -11.495   6.944  -5.195  0.00  0.00    +0.000 HD
ATOM     13  H   UNL     1     -11.901   5.235  -5.400  0.00  0.00    +0.000 HD
ENDROOT
BRANCH   5  14
ATOM     14  C   UNL     1      -9.534   7.525  -8.634  0.00  0.00    +0.000 C 
ATOM     15  H   UNL     1      -8.500   7.877  -8.722  0.00  0.00    +0.000 HD
ATOM     16  H   UNL     1      -9.841   7.167  -9.623  0.00  0.00    +0.000 HD
ATOM     17  H   UNL     1     -10.168   8.380  -8.375  0.00  0.00    +0.000 HD
ENDBRANCH   5  14
BRANCH   2  18
ATOM     18  C   UNL     1      -9.476   4.245  -5.566  0.00  0.00    +0.000 C 
ATOM     19  H   UNL     1      -9.134   4.032  -6.586  0.00  0.00    +0.000 HD
BRANCH  18  20
ATOM     20  C   UNL     1      -8.384   3.741  -4.620  0.00  0.00    +0.000 C 
ATOM     21  H   UNL     1      -7.459   4.328  -4.652  0.00  0.00    +0.000 HD
ATOM     22  H   UNL     1      -8.743   3.843  -3.586  0.00  0.00    +0.000 HD
ATOM     23  H   UNL     1      -8.193   2.666  -4.721  0.00  0.00    +0.000 HD
ENDBRANCH  18  20
BRANCH  18  24
ATOM     24  C   UNL     1     -10.761   3.437  -5.370  0.00  0.00    +0.000 C 
ATOM     25  H   UNL     1     -10.891   3.135  -4.325  0.00  0.00    +0.000 HD
ATOM     26  H   UNL     1     -10.745   2.525  -5.979  0.00  0.00    +0.000 HD
ATOM     27  H   UNL     1     -11.654   3.984  -5.686  0.00  0.00    +0.000 HD
ENDBRANCH  18  24
ENDBRANCH   2  18
TORSDOF 4
ENDMDL
MODEL 9
REMARK VINA RESULT:    -4.281     26.671     27.861
REMARK INTER + INTRA:          -5.021
REMARK INTER:                  -4.945
REMARK INTRA:                  -0.076
REMARK UNBOUND:                -0.114
REMARK  Name = 249286
REMARK  4 active torsions:
REMARK  status: ('A' for Active; 'I' for Inactive)
REMARK    1  A    between atoms: C_2  and  C_7
REMARK    2  A    between atoms: C_5  and  C_9
REMARK    3  A    between atoms: C_7  and  C_10
REMARK    4  A    between atoms: C_7  and  C_11
REMARK                            x       y       z     vdW  Elec       q    Type
REMARK                         _______ _______ _______ _____ _____    ______ ____
ROOT
ATOM      1  O   UNL     1      11.243  -4.532  10.378  0.00  0.00    +0.000 OA
ATOM      2  C   UNL     1      13.419  -3.770   7.751  0.00  0.00    +0.000 C 
ATOM      3  C   UNL     1      12.281  -4.596   7.051  0.00  0.00    +0.000 C 
ATOM      4  C   UNL     1      13.446  -4.085   6.297  0.00  0.00    +0.000 C 
ATOM      5  C   UNL     1      11.893  -5.484   8.197  0.00  0.00    +0.000 C 
ATOM      6  C   UNL     1      12.609  -3.179   8.859  0.00  0.00    +0.000 C 
ATOM      7  C   UNL     1      11.827  -4.419   9.312  0.00  0.00    +0.000 C 
ATOM      8  H   UNL     1      11.375  -4.087   6.708  0.00  0.00    +0.000 HD
ATOM      9  H   UNL     1      13.280  -3.235   5.633  0.00  0.00    +0.000 HD
ATOM     10  H   UNL     1      13.892  -4.876   5.711  0.00  0.00    +0.000 HD
ATOM     11  H   UNL     1      12.659  -6.232   8.424  0.00  0.00    +0.000 HD
ATOM     12  H   UNL     1      11.902  -2.433   8.481  0.00  0.00    +0.000 HD
ATOM     13  H   UNL     1      13.137  -2.748   9.707  0.00  0.00    +0.000 HD
ENDROOT
BRANCH   5  14
ATOM     14  C   UNL     1      10.556  -6.168   7.991  0.00  0.00    +0.000 C 
ATOM     15  H   UNL     1      10.599  -6.853   7.137  0.00  0.00    +0.000 HD
ATOM     16  H   UNL     1      10.262  -6.757   8.867  0.00  0.00    +0.000 HD
ATOM     17  H   UNL     1       9.768  -5.431   7.802  0.00  0.00    +0.000 HD
ENDBRANCH   5  14
BRANCH   2  18
ATOM     18  C   UNL     1      14.666  -4.392   8.348  0.00  0.00    +0.000 C 
ATOM     19  H   UNL     1      14.513  -5.449   8.596  0.00  0.00    +0.000 HD
BRANCH  18  20
ATOM     20  C   UNL     1      15.833  -4.336   7.360  0.00  0.00    +0.000 C 
ATOM     21  H   UNL     1      15.875  -3.412   6.771  0.00  0.00    +0.000 HD
ATOM     22  H   UNL     1      16.773  -4.348   7.929  0.00  0.00    +0.000 HD
ATOM     23  H   UNL     1      15.903  -5.230   6.729  0.00  0.00    +0.000 HD
ENDBRANCH  18  20
BRANCH  18  24
ATOM     24  C   UNL     1      15.048  -3.699   9.658  0.00  0.00    +0.000 C 
ATOM     25  H   UNL     1      14.835  -4.332  10.526  0.00  0.00    +0.000 HD
ATOM     26  H   UNL     1      14.486  -2.766   9.784  0.00  0.00    +0.000 HD
ATOM     27  H   UNL     1      16.103  -3.411   9.690  0.00  0.00    +0.000 HD
ENDBRANCH  18  24
ENDBRANCH   2  18
TORSDOF 4
ENDMDL
MODEL 10
REMARK VINA RESULT:    -4.190      6.401      8.307
REMARK INTER + INTRA:          -4.916
REMARK INTER:                  -4.802
REMARK INTRA:                  -0.114
REMARK UNBOUND:                -0.114
REMARK  Name = 249286
REMARK  4 active torsions:
REMARK  status: ('A' for Active; 'I' for Inactive)
REMARK    1  A    between atoms: C_2  and  C_7
REMARK    2  A    between atoms: C_5  and  C_9
REMARK    3  A    between atoms: C_7  and  C_10
REMARK    4  A    between atoms: C_7  and  C_11
REMARK                            x       y       z     vdW  Elec       q    Type
REMARK                         _______ _______ _______ _____ _____    ______ ____
ROOT
ATOM      1  O   UNL     1      -7.417   6.227  -8.294  0.00  0.00    +0.000 OA
ATOM      2  C   UNL     1      -9.100   5.103  -5.444  0.00  0.00    +0.000 C 
ATOM      3  C   UNL     1      -8.418   3.802  -5.999  0.00  0.00    +0.000 C 
ATOM      4  C   UNL     1      -9.270   3.777  -4.791  0.00  0.00    +0.000 C 
ATOM      5  C   UNL     1      -8.426   4.136  -7.462  0.00  0.00    +0.000 C 
ATOM      6  C   UNL     1      -8.108   6.101  -5.946  0.00  0.00    +0.000 C 
ATOM      7  C   UNL     1      -7.911   5.588  -7.379  0.00  0.00    +0.000 C 
ATOM      8  H   UNL     1      -7.386   3.571  -5.720  0.00  0.00    +0.000 HD
ATOM      9  H   UNL     1      -8.771   3.665  -3.827  0.00  0.00    +0.000 HD
ATOM     10  H   UNL     1     -10.012   2.994  -4.869  0.00  0.00    +0.000 HD
ATOM     11  H   UNL     1      -9.431   4.108  -7.893  0.00  0.00    +0.000 HD
ATOM     12  H   UNL     1      -7.157   6.022  -5.407  0.00  0.00    +0.000 HD
ATOM     13  H   UNL     1      -8.400   7.149  -5.968  0.00  0.00    +0.000 HD
ENDROOT
BRANCH   5  14
ATOM     14  C   UNL     1      -7.498   3.255  -8.277  0.00  0.00    +0.000 C 
ATOM     15  H   UNL     1      -7.373   2.278  -7.797  0.00  0.00    +0.000 HD
ATOM     16  H   UNL     1      -7.889   3.075  -9.284  0.00  0.00    +0.000 HD
ATOM     17  H   UNL     1      -6.511   3.719  -8.377  0.00  0.00    +0.000 HD
ENDBRANCH   5  14
BRANCH   2  18
ATOM     18  C   UNL     1     -10.488   5.564  -5.847  0.00  0.00    +0.000 C 
ATOM     19  H   UNL     1     -10.616   5.562  -6.936  0.00  0.00    +0.000 HD
BRANCH  18  20
ATOM     20  C   UNL     1     -11.560   4.634  -5.276  0.00  0.00    +0.000 C 
ATOM     21  H   UNL     1     -11.363   3.569  -5.442  0.00  0.00    +0.000 HD
ATOM     22  H   UNL     1     -11.575   4.748  -4.182  0.00  0.00    +0.000 HD
ATOM     23  H   UNL     1     -12.576   4.917  -5.576  0.00  0.00    +0.000 HD
ENDBRANCH  18  20
BRANCH  18  24
ATOM     24  C   UNL     1     -10.738   7.004  -5.392  0.00  0.00    +0.000 C 
ATOM     25  H   UNL     1     -10.929   7.668  -6.242  0.00  0.00    +0.000 HD
ATOM     26  H   UNL     1      -9.870   7.399  -4.851  0.00  0.00    +0.000 HD
ATOM     27  H   UNL     1     -11.577   7.085  -4.695  0.00  0.00    +0.000 HD
ENDBRANCH  18  24
ENDBRANCH   2  18
TORSDOF 4
ENDMDL
