MODEL 1
REMARK VINA RESULT:    -4.027      0.000      0.000
REMARK INTER + INTRA:          -6.128
REMARK INTER:                  -5.817
REMARK INTRA:                  -0.311
REMARK UNBOUND:                -0.453
REMARK  Name = 7983
REMARK  8 active torsions:
REMARK  status: ('A' for Active; 'I' for Inactive)
REMARK    1  A    between atoms: O_1  and  C_5
REMARK    2  A    between atoms: O_1  and  C_9
REMARK    3  A    between atoms: C_3  and  C_4
REMARK    4  A    between atoms: C_3  and  C_5
REMARK    5  A    between atoms: C_4  and  C_8
REMARK    6  A    between atoms: C_6  and  C_7
REMARK    7  A    between atoms: C_6  and  C_9
REMARK    8  A    between atoms: C_7  and  C_10
REMARK                            x       y       z     vdW  Elec       q    Type
REMARK                         _______ _______ _______ _____ _____    ______ ____
ROOT
ATOM      1  O   UNL     1       4.863   8.603   1.437  0.00  0.00    +0.000 OA
ENDROOT
BRANCH   1   2
ATOM      2  C   UNL     1       5.831   8.584   2.489  0.00  0.00    +0.000 C 
ATOM      3  H   UNL     1       5.546   9.314   3.257  0.00  0.00    +0.000 HD
ATOM      4  H   UNL     1       6.813   8.853   2.083  0.00  0.00    +0.000 HD
BRANCH   2   5
ATOM      5  C   UNL     1       5.878   7.185   3.090  0.00  0.00    +0.000 C 
ATOM      6  H   UNL     1       6.798   6.682   2.767  0.00  0.00    +0.000 HD
ATOM      7  H   UNL     1       5.051   6.590   2.682  0.00  0.00    +0.000 HD
BRANCH   5   8
ATOM      8  C   UNL     1       5.800   7.224   4.613  0.00  0.00    +0.000 C 
ATOM      9  H   UNL     1       6.803   7.111   5.041  0.00  0.00    +0.000 HD
ATOM     10  H   UNL     1       5.197   6.384   4.977  0.00  0.00    +0.000 HD
BRANCH   8  11
ATOM     11  C   UNL     1       5.193   8.527   5.107  0.00  0.00    +0.000 C 
ATOM     12  H   UNL     1       5.131   8.542   6.200  0.00  0.00    +0.000 HD
ATOM     13  H   UNL     1       5.791   9.385   4.785  0.00  0.00    +0.000 HD
ATOM     14  H   UNL     1       4.181   8.649   4.708  0.00  0.00    +0.000 HD
ENDBRANCH   8  11
ENDBRANCH   5   8
ENDBRANCH   2   5
ENDBRANCH   1   2
BRANCH   1  16
ATOM     15  O   UNL     1       3.221   9.884   2.431  0.00  0.00    +0.000 OA
ATOM     16  C   UNL     1       3.958   9.625   1.490  0.00  0.00    +0.000 C 
BRANCH  16  17
ATOM     17  C   UNL     1       4.012  10.394   0.189  0.00  0.00    +0.000 C 
ATOM     18  H   UNL     1       4.339   9.706  -0.600  0.00  0.00    +0.000 HD
ATOM     19  H   UNL     1       3.001  10.747  -0.043  0.00  0.00    +0.000 HD
BRANCH  17  20
ATOM     20  C   UNL     1       4.966  11.582   0.265  0.00  0.00    +0.000 C 
ATOM     21  H   UNL     1       4.500  12.466  -0.188  0.00  0.00    +0.000 HD
ATOM     22  H   UNL     1       5.168  11.834   1.313  0.00  0.00    +0.000 HD
BRANCH  20  23
ATOM     23  C   UNL     1       6.280  11.288  -0.440  0.00  0.00    +0.000 C 
ATOM     24  H   UNL     1       6.092  10.891  -1.443  0.00  0.00    +0.000 HD
ATOM     25  H   UNL     1       6.882  12.197  -0.543  0.00  0.00    +0.000 HD
ATOM     26  H   UNL     1       6.866  10.549   0.113  0.00  0.00    +0.000 HD
ENDBRANCH  20  23
ENDBRANCH  17  20
ENDBRANCH  16  17
ENDBRANCH   1  16
TORSDOF 8
ENDMDL
MODEL 2
REMARK VINA RESULT:    -3.946     13.903     15.436
REMARK INTER + INTRA:          -6.015
REMARK INTER:                  -5.559
REMARK INTRA:                  -0.455
REMARK UNBOUND:                -0.453
REMARK  Name = 7983
REMARK  8 active torsions:
REMARK  status: ('A' for Active; 'I' for Inactive)
REMARK    1  A    between atoms: O_1  and  C_5
REMARK    2  A    between atoms: O_1  and  C_9
REMARK    3  A    between atoms: C_3  and  C_4
REMARK    4  A    between atoms: C_3  and  C_5
REMARK    5  A    between atoms: C_4  and  C_8
REMARK    6  A    between atoms: C_6  and  C_7
REMARK    7  A    between atoms: C_6  and  C_9
REMARK    8  A    between atoms: C_7  and  C_10
REMARK                            x       y       z     vdW  Elec       q    Type
REMARK                         _______ _______ _______ _____ _____    ______ ____
ROOT
ATOM      1  O   UNL     1      -1.636   8.741 -10.386  0.00  0.00    +0.000 OA
ENDROOT
BRANCH   1   2
ATOM      2  C   UNL     1      -1.188  10.065 -10.692  0.00  0.00    +0.000 C 
ATOM      3  H   UNL     1      -0.322  10.307 -10.065  0.00  0.00    +0.000 HD
ATOM      4  H   UNL     1      -1.995  10.778 -10.485  0.00  0.00    +0.000 HD
BRANCH   2   5
ATOM      5  C   UNL     1      -0.801  10.126 -12.164  0.00  0.00    +0.000 C 
ATOM      6  H   UNL     1      -0.068  10.929 -12.314  0.00  0.00    +0.000 HD
ATOM      7  H   UNL     1      -1.680  10.408 -12.757  0.00  0.00    +0.000 HD
BRANCH   5   8
ATOM      8  C   UNL     1      -0.238   8.795 -12.654  0.00  0.00    +0.000 C 
ATOM      9  H   UNL     1      -0.269   8.056 -11.845  0.00  0.00    +0.000 HD
ATOM     10  H   UNL     1       0.812   8.918 -12.940  0.00  0.00    +0.000 HD
BRANCH   8  11
ATOM     11  C   UNL     1      -1.022   8.263 -13.843  0.00  0.00    +0.000 C 
ATOM     12  H   UNL     1      -1.372   7.242 -13.657  0.00  0.00    +0.000 HD
ATOM     13  H   UNL     1      -1.893   8.892 -14.052  0.00  0.00    +0.000 HD
ATOM     14  H   UNL     1      -0.391   8.248 -14.737  0.00  0.00    +0.000 HD
ENDBRANCH   8  11
ENDBRANCH   5   8
ENDBRANCH   2   5
ENDBRANCH   1   2
BRANCH   1  16
ATOM     15  O   UNL     1      -2.925   9.548  -8.651  0.00  0.00    +0.000 OA
ATOM     16  C   UNL     1      -2.599   8.655  -9.421  0.00  0.00    +0.000 C 
BRANCH  16  17
ATOM     17  C   UNL     1      -3.204   7.270  -9.457  0.00  0.00    +0.000 C 
ATOM     18  H   UNL     1      -2.604   6.620  -8.809  0.00  0.00    +0.000 HD
ATOM     19  H   UNL     1      -4.222   7.330  -9.057  0.00  0.00    +0.000 HD
BRANCH  17  20
ATOM     20  C   UNL     1      -3.240   6.697 -10.871  0.00  0.00    +0.000 C 
ATOM     21  H   UNL     1      -2.517   7.223 -11.506  0.00  0.00    +0.000 HD
ATOM     22  H   UNL     1      -2.939   5.643 -10.856  0.00  0.00    +0.000 HD
BRANCH  20  23
ATOM     23  C   UNL     1      -4.626   6.813 -11.484  0.00  0.00    +0.000 C 
ATOM     24  H   UNL     1      -5.320   7.271 -10.772  0.00  0.00    +0.000 HD
ATOM     25  H   UNL     1      -4.606   7.436 -12.385  0.00  0.00    +0.000 HD
ATOM     26  H   UNL     1      -5.019   5.829 -11.756  0.00  0.00    +0.000 HD
ENDBRANCH  20  23
ENDBRANCH  17  20
ENDBRANCH  16  17
ENDBRANCH   1  16
TORSDOF 8
ENDMDL
MODEL 3
REMARK VINA RESULT:    -3.945     13.749     15.265
REMARK INTER + INTRA:          -6.013
REMARK INTER:                  -5.580
REMARK INTRA:                  -0.432
REMARK UNBOUND:                -0.453
REMARK  Name = 7983
REMARK  8 active torsions:
REMARK  status: ('A' for Active; 'I' for Inactive)
REMARK    1  A    between atoms: O_1  and  C_5
REMARK    2  A    between atoms: O_1  and  C_9
REMARK    3  A    between atoms: C_3  and  C_4
REMARK    4  A    between atoms: C_3  and  C_5
REMARK    5  A    between atoms: C_4  and  C_8
REMARK    6  A    between atoms: C_6  and  C_7
REMARK    7  A    between atoms: C_6  and  C_9
REMARK    8  A    between atoms: C_7  and  C_10
REMARK                            x       y       z     vdW  Elec       q    Type
REMARK                         _______ _______ _______ _____ _____    ______ ____
ROOT
ATOM      1  O   UNL     1      -1.142   9.903 -10.641  0.00  0.00    +0.000 OA
ENDROOT
BRANCH   1   2
ATOM      2  C   UNL     1      -2.496   9.537 -10.362  0.00  0.00    +0.000 C 
ATOM      3  H   UNL     1      -2.788   8.707 -11.017  0.00  0.00    +0.000 HD
ATOM      4  H   UNL     1      -3.150  10.396 -10.555  0.00  0.00    +0.000 HD
BRANCH   2   5
ATOM      5  C   UNL     1      -2.602   9.115  -8.903  0.00  0.00    +0.000 C 
ATOM      6  H   UNL     1      -3.145   9.885  -8.340  0.00  0.00    +0.000 HD
ATOM      7  H   UNL     1      -1.597   9.077  -8.465  0.00  0.00    +0.000 HD
BRANCH   5   8
ATOM      8  C   UNL     1      -3.294   7.764  -8.757  0.00  0.00    +0.000 C 
ATOM      9  H   UNL     1      -4.376   7.908  -8.656  0.00  0.00    +0.000 HD
ATOM     10  H   UNL     1      -2.948   7.264  -7.845  0.00  0.00    +0.000 HD
BRANCH   8  11
ATOM     11  C   UNL     1      -3.022   6.866  -9.953  0.00  0.00    +0.000 C 
ATOM     12  H   UNL     1      -2.037   6.394  -9.873  0.00  0.00    +0.000 HD
ATOM     13  H   UNL     1      -3.776   6.078 -10.032  0.00  0.00    +0.000 HD
ATOM     14  H   UNL     1      -3.042   7.450 -10.879  0.00  0.00    +0.000 HD
ENDBRANCH   8  11
ENDBRANCH   5   8
ENDBRANCH   2   5
ENDBRANCH   1   2
BRANCH   1  16
ATOM     15  O   UNL     1      -0.686  10.794 -12.720  0.00  0.00    +0.000 OA
ATOM     16  C   UNL     1      -0.775   9.843 -11.956  0.00  0.00    +0.000 C 
BRANCH  16  17
ATOM     17  C   UNL     1      -0.493   8.403 -12.320  0.00  0.00    +0.000 C 
ATOM     18  H   UNL     1       0.593   8.277 -12.394  0.00  0.00    +0.000 HD
ATOM     19  H   UNL     1      -0.874   7.765 -11.515  0.00  0.00    +0.000 HD
BRANCH  17  20
ATOM     20  C   UNL     1      -1.149   8.008 -13.641  0.00  0.00    +0.000 C 
ATOM     21  H   UNL     1      -1.654   8.877 -14.082  0.00  0.00    +0.000 HD
ATOM     22  H   UNL     1      -0.383   7.691 -14.359  0.00  0.00    +0.000 HD
BRANCH  20  23
ATOM     23  C   UNL     1      -2.154   6.884 -13.451  0.00  0.00    +0.000 C 
ATOM     24  H   UNL     1      -2.649   6.653 -14.400  0.00  0.00    +0.000 HD
ATOM     25  H   UNL     1      -1.661   5.973 -13.096  0.00  0.00    +0.000 HD
ATOM     26  H   UNL     1      -2.924   7.164 -12.726  0.00  0.00    +0.000 HD
ENDBRANCH  20  23
ENDBRANCH  17  20
ENDBRANCH  16  17
ENDBRANCH   1  16
TORSDOF 8
ENDMDL
MODEL 4
REMARK VINA RESULT:    -3.897     14.107     15.464
REMARK INTER + INTRA:          -5.945
REMARK INTER:                  -5.591
REMARK INTRA:                  -0.354
REMARK UNBOUND:                -0.453
REMARK  Name = 7983
REMARK  8 active torsions:
REMARK  status: ('A' for Active; 'I' for Inactive)
REMARK    1  A    between atoms: O_1  and  C_5
REMARK    2  A    between atoms: O_1  and  C_9
REMARK    3  A    between atoms: C_3  and  C_4
REMARK    4  A    between atoms: C_3  and  C_5
REMARK    5  A    between atoms: C_4  and  C_8
REMARK    6  A    between atoms: C_6  and  C_7
REMARK    7  A    between atoms: C_6  and  C_9
REMARK    8  A    between atoms: C_7  and  C_10
REMARK                            x       y       z     vdW  Elec       q    Type
REMARK                         _______ _______ _______ _____ _____    ______ ____
ROOT
ATOM      1  O   UNL     1      -2.570   8.235  -9.505  0.00  0.00    +0.000 OA
ENDROOT
BRANCH   1   2
ATOM      2  C   UNL     1      -2.641   9.526 -10.117  0.00  0.00    +0.000 C 
ATOM      3  H   UNL     1      -3.181  10.212  -9.453  0.00  0.00    +0.000 HD
ATOM      4  H   UNL     1      -3.179   9.447 -11.069  0.00  0.00    +0.000 HD
BRANCH   2   5
ATOM      5  C   UNL     1      -1.226  10.036 -10.356  0.00  0.00    +0.000 C 
ATOM      6  H   UNL     1      -0.517   9.420  -9.789  0.00  0.00    +0.000 HD
ATOM      7  H   UNL     1      -1.134  11.050  -9.949  0.00  0.00    +0.000 HD
BRANCH   5   8
ATOM      8  C   UNL     1      -0.867  10.027 -11.839  0.00  0.00    +0.000 C 
ATOM      9  H   UNL     1      -0.205   9.182 -12.058  0.00  0.00    +0.000 HD
ATOM     10  H   UNL     1      -0.321  10.942 -12.096  0.00  0.00    +0.000 HD
BRANCH   8  11
ATOM     11  C   UNL     1      -2.109   9.923 -12.712  0.00  0.00    +0.000 C 
ATOM     12  H   UNL     1      -2.777   9.135 -12.350  0.00  0.00    +0.000 HD
ATOM     13  H   UNL     1      -2.662  10.867 -12.720  0.00  0.00    +0.000 HD
ATOM     14  H   UNL     1      -1.828   9.684 -13.743  0.00  0.00    +0.000 HD
ENDBRANCH   8  11
ENDBRANCH   5   8
ENDBRANCH   2   5
ENDBRANCH   1   2
BRANCH   1  16
ATOM     15  O   UNL     1      -1.953   6.658 -11.072  0.00  0.00    +0.000 OA
ATOM     16  C   UNL     1      -2.786   7.176 -10.340  0.00  0.00    +0.000 C 
BRANCH  16  17
ATOM     17  C   UNL     1      -4.228   6.740 -10.216  0.00  0.00    +0.000 C 
ATOM     18  H   UNL     1      -4.863   7.560 -10.572  0.00  0.00    +0.000 HD
ATOM     19  H   UNL     1      -4.379   5.866 -10.859  0.00  0.00    +0.000 HD
BRANCH  17  20
ATOM     20  C   UNL     1      -4.598   6.389  -8.777  0.00  0.00    +0.000 C 
ATOM     21  H   UNL     1      -3.885   5.657  -8.376  0.00  0.00    +0.000 HD
ATOM     22  H   UNL     1      -4.525   7.281  -8.143  0.00  0.00    +0.000 HD
BRANCH  20  23
ATOM     23  C   UNL     1      -6.005   5.824  -8.686  0.00  0.00    +0.000 C 
ATOM     24  H   UNL     1      -6.743   6.605  -8.895  0.00  0.00    +0.000 HD
ATOM     25  H   UNL     1      -6.152   5.017  -9.411  0.00  0.00    +0.000 HD
ATOM     26  H   UNL     1      -6.205   5.428  -7.686  0.00  0.00    +0.000 HD
ENDBRANCH  20  23
ENDBRANCH  17  20
ENDBRANCH  16  17
ENDBRANCH   1  16
TORSDOF 8
ENDMDL
MODEL 5
REMARK VINA RESULT:    -3.816     13.081     14.692
REMARK INTER + INTRA:          -5.831
REMARK INTER:                  -5.536
REMARK INTRA:                  -0.296
REMARK UNBOUND:                -0.453
REMARK  Name = 7983
REMARK  8 active torsions:
REMARK  status: ('A' for Active; 'I' for Inactive)
REMARK    1  A    between atoms: O_1  and  C_5
REMARK    2  A    between atoms: O_1  and  C_9
REMARK    3  A    between atoms: C_3  and  C_4
REMARK    4  A    between atoms: C_3  and  C_5
REMARK    5  A    between atoms: C_4  and  C_8
REMARK    6  A    between atoms: C_6  and  C_7
REMARK    7  A    between atoms: C_6  and  C_9
REMARK    8  A    between atoms: C_7  and  C_10
REMARK                            x       y       z     vdW  Elec       q    Type
REMARK                         _______ _______ _______ _____ _____    ______ ____
ROOT
ATOM      1  O   UNL     1      -8.494  11.682   6.936  0.00  0.00    +0.000 OA
ENDROOT
BRANCH   1   2
ATOM      2  C   UNL     1      -8.399  10.884   5.753  0.00  0.00    +0.000 C 
ATOM      3  H   UNL     1      -9.382  10.840   5.267  0.00  0.00    +0.000 HD
ATOM      4  H   UNL     1      -8.084   9.870   6.024  0.00  0.00    +0.000 HD
BRANCH   2   5
ATOM      5  C   UNL     1      -7.380  11.516   4.814  0.00  0.00    +0.000 C 
ATOM      6  H   UNL     1      -7.571  11.174   3.788  0.00  0.00    +0.000 HD
ATOM      7  H   UNL     1      -6.378  11.150   5.070  0.00  0.00    +0.000 HD
BRANCH   5   8
ATOM      8  C   UNL     1      -7.421  13.039   4.880  0.00  0.00    +0.000 C 
ATOM      9  H   UNL     1      -8.185  13.361   5.598  0.00  0.00    +0.000 HD
ATOM     10  H   UNL     1      -7.702  13.448   3.903  0.00  0.00    +0.000 HD
BRANCH   8  11
ATOM     11  C   UNL     1      -6.076  13.615   5.296  0.00  0.00    +0.000 C 
ATOM     12  H   UNL     1      -5.295  12.847   5.266  0.00  0.00    +0.000 HD
ATOM     13  H   UNL     1      -5.779  14.433   4.634  0.00  0.00    +0.000 HD
ATOM     14  H   UNL     1      -6.130  14.005   6.317  0.00  0.00    +0.000 HD
ENDBRANCH   8  11
ENDBRANCH   5   8
ENDBRANCH   2   5
ENDBRANCH   1   2
BRANCH   1  16
ATOM     15  O   UNL     1      -7.351  11.535   8.935  0.00  0.00    +0.000 OA
ATOM     16  C   UNL     1      -8.105  11.068   8.093  0.00  0.00    +0.000 C 
BRANCH  16  17
ATOM     17  C   UNL     1      -8.762   9.708   8.169  0.00  0.00    +0.000 C 
ATOM     18  H   UNL     1      -9.720   9.821   8.690  0.00  0.00    +0.000 HD
ATOM     19  H   UNL     1      -8.951   9.361   7.147  0.00  0.00    +0.000 HD
BRANCH  17  20
ATOM     20  C   UNL     1      -7.892   8.692   8.903  0.00  0.00    +0.000 C 
ATOM     21  H   UNL     1      -7.874   7.745   8.350  0.00  0.00    +0.000 HD
ATOM     22  H   UNL     1      -6.856   9.050   8.950  0.00  0.00    +0.000 HD
BRANCH  20  23
ATOM     23  C   UNL     1      -8.399   8.441  10.314  0.00  0.00    +0.000 C 
ATOM     24  H   UNL     1      -9.238   9.106  10.540  0.00  0.00    +0.000 HD
ATOM     25  H   UNL     1      -8.745   7.408  10.428  0.00  0.00    +0.000 HD
ATOM     26  H   UNL     1      -7.612   8.623  11.052  0.00  0.00    +0.000 HD
ENDBRANCH  20  23
ENDBRANCH  17  20
ENDBRANCH  16  17
ENDBRANCH   1  16
TORSDOF 8
ENDMDL
MODEL 6
REMARK VINA RESULT:    -3.788     13.444     14.367
REMARK INTER + INTRA:          -5.791
REMARK INTER:                  -5.603
REMARK INTRA:                  -0.188
REMARK UNBOUND:                -0.453
REMARK  Name = 7983
REMARK  8 active torsions:
REMARK  status: ('A' for Active; 'I' for Inactive)
REMARK    1  A    between atoms: O_1  and  C_5
REMARK    2  A    between atoms: O_1  and  C_9
REMARK    3  A    between atoms: C_3  and  C_4
REMARK    4  A    between atoms: C_3  and  C_5
REMARK    5  A    between atoms: C_4  and  C_8
REMARK    6  A    between atoms: C_6  and  C_7
REMARK    7  A    between atoms: C_6  and  C_9
REMARK    8  A    between atoms: C_7  and  C_10
REMARK                            x       y       z     vdW  Elec       q    Type
REMARK                         _______ _______ _______ _____ _____    ______ ____
ROOT
ATOM      1  O   UNL     1      -8.583  10.646   6.274  0.00  0.00    +0.000 OA
ENDROOT
BRANCH   1   2
ATOM      2  C   UNL     1      -9.093  10.411   7.590  0.00  0.00    +0.000 C 
ATOM      3  H   UNL     1     -10.189  10.439   7.563  0.00  0.00    +0.000 HD
ATOM      4  H   UNL     1      -8.729  11.195   8.265  0.00  0.00    +0.000 HD
BRANCH   2   5
ATOM      5  C   UNL     1      -8.616   9.046   8.066  0.00  0.00    +0.000 C 
ATOM      6  H   UNL     1      -8.005   8.581   7.282  0.00  0.00    +0.000 HD
ATOM      7  H   UNL     1      -9.484   8.388   8.200  0.00  0.00    +0.000 HD
BRANCH   5   8
ATOM      8  C   UNL     1      -7.823   9.148   9.365  0.00  0.00    +0.000 C 
ATOM      9  H   UNL     1      -7.745  10.197   9.674  0.00  0.00    +0.000 HD
ATOM     10  H   UNL     1      -6.803   8.779   9.210  0.00  0.00    +0.000 HD
BRANCH   8  11
ATOM     11  C   UNL     1      -8.479   8.350  10.482  0.00  0.00    +0.000 C 
ATOM     12  H   UNL     1      -9.519   8.113  10.235  0.00  0.00    +0.000 HD
ATOM     13  H   UNL     1      -7.944   7.413  10.660  0.00  0.00    +0.000 HD
ATOM     14  H   UNL     1      -8.475   8.927  11.413  0.00  0.00    +0.000 HD
ENDBRANCH   8  11
ENDBRANCH   5   8
ENDBRANCH   2   5
ENDBRANCH   1   2
BRANCH   1  16
ATOM     15  O   UNL     1     -10.539  11.678   5.615  0.00  0.00    +0.000 OA
ATOM     16  C   UNL     1      -9.341  11.468   5.488  0.00  0.00    +0.000 C 
BRANCH  16  17
ATOM     17  C   UNL     1      -8.455  12.082   4.427  0.00  0.00    +0.000 C 
ATOM     18  H   UNL     1      -8.610  11.530   3.493  0.00  0.00    +0.000 HD
ATOM     19  H   UNL     1      -8.765  13.123   4.283  0.00  0.00    +0.000 HD
BRANCH  17  20
ATOM     20  C   UNL     1      -6.980  12.035   4.816  0.00  0.00    +0.000 C 
ATOM     21  H   UNL     1      -6.835  11.338   5.650  0.00  0.00    +0.000 HD
ATOM     22  H   UNL     1      -6.384  11.653   3.978  0.00  0.00    +0.000 HD
BRANCH  20  23
ATOM     23  C   UNL     1      -6.464  13.408   5.212  0.00  0.00    +0.000 C 
ATOM     24  H   UNL     1      -7.243  13.970   5.737  0.00  0.00    +0.000 HD
ATOM     25  H   UNL     1      -5.599  13.325   5.879  0.00  0.00    +0.000 HD
ATOM     26  H   UNL     1      -6.165  13.985   4.332  0.00  0.00    +0.000 HD
ENDBRANCH  20  23
ENDBRANCH  17  20
ENDBRANCH  16  17
ENDBRANCH   1  16
TORSDOF 8
ENDMDL
MODEL 7
REMARK VINA RESULT:    -3.671     13.960     15.334
REMARK INTER + INTRA:          -5.627
REMARK INTER:                  -5.267
REMARK INTRA:                  -0.360
REMARK UNBOUND:                -0.453
REMARK  Name = 7983
REMARK  8 active torsions:
REMARK  status: ('A' for Active; 'I' for Inactive)
REMARK    1  A    between atoms: O_1  and  C_5
REMARK    2  A    between atoms: O_1  and  C_9
REMARK    3  A    between atoms: C_3  and  C_4
REMARK    4  A    between atoms: C_3  and  C_5
REMARK    5  A    between atoms: C_4  and  C_8
REMARK    6  A    between atoms: C_6  and  C_7
REMARK    7  A    between atoms: C_6  and  C_9
REMARK    8  A    between atoms: C_7  and  C_10
REMARK                            x       y       z     vdW  Elec       q    Type
REMARK                         _______ _______ _______ _____ _____    ______ ____
ROOT
ATOM      1  O   UNL     1      -0.911  10.356 -11.115  0.00  0.00    +0.000 OA
ENDROOT
BRANCH   1   2
ATOM      2  C   UNL     1      -1.320   9.720  -9.901  0.00  0.00    +0.000 C 
ATOM      3  H   UNL     1      -1.200  10.423  -9.067  0.00  0.00    +0.000 HD
ATOM      4  H   UNL     1      -0.692   8.839  -9.723  0.00  0.00    +0.000 HD
BRANCH   2   5
ATOM      5  C   UNL     1      -2.779   9.306 -10.030  0.00  0.00    +0.000 C 
ATOM      6  H   UNL     1      -3.060   9.288 -11.091  0.00  0.00    +0.000 HD
ATOM      7  H   UNL     1      -3.414  10.071  -9.565  0.00  0.00    +0.000 HD
BRANCH   5   8
ATOM      8  C   UNL     1      -3.037   7.945  -9.390  0.00  0.00    +0.000 C 
ATOM      9  H   UNL     1      -4.066   7.897  -9.015  0.00  0.00    +0.000 HD
ATOM     10  H   UNL     1      -2.371   7.804  -8.531  0.00  0.00    +0.000 HD
BRANCH   8  11
ATOM     11  C   UNL     1      -2.819   6.813 -10.383  0.00  0.00    +0.000 C 
ATOM     12  H   UNL     1      -2.943   5.839  -9.900  0.00  0.00    +0.000 HD
ATOM     13  H   UNL     1      -3.527   6.879 -11.214  0.00  0.00    +0.000 HD
ATOM     14  H   UNL     1      -1.805   6.861 -10.794  0.00  0.00    +0.000 HD
ENDBRANCH   8  11
ENDBRANCH   5   8
ENDBRANCH   2   5
ENDBRANCH   1   2
BRANCH   1  16
ATOM     15  O   UNL     1      -0.132   8.429 -12.118  0.00  0.00    +0.000 OA
ATOM     16  C   UNL     1      -0.687   9.518 -12.171  0.00  0.00    +0.000 C 
BRANCH  16  17
ATOM     17  C   UNL     1      -1.241  10.154 -13.426  0.00  0.00    +0.000 C 
ATOM     18  H   UNL     1      -1.435   9.359 -14.154  0.00  0.00    +0.000 HD
ATOM     19  H   UNL     1      -2.187  10.645 -13.173  0.00  0.00    +0.000 HD
BRANCH  17  20
ATOM     20  C   UNL     1      -0.276  11.175 -14.023  0.00  0.00    +0.000 C 
ATOM     21  H   UNL     1      -0.831  11.910 -14.619  0.00  0.00    +0.000 HD
ATOM     22  H   UNL     1       0.224  11.732 -13.221  0.00  0.00    +0.000 HD
BRANCH  20  23
ATOM     23  C   UNL     1       0.772  10.507 -14.897  0.00  0.00    +0.000 C 
ATOM     24  H   UNL     1       0.861  11.033 -15.853  0.00  0.00    +0.000 HD
ATOM     25  H   UNL     1       1.754  10.519 -14.412  0.00  0.00    +0.000 HD
ATOM     26  H   UNL     1       0.505   9.467 -15.107  0.00  0.00    +0.000 HD
ENDBRANCH  20  23
ENDBRANCH  17  20
ENDBRANCH  16  17
ENDBRANCH   1  16
TORSDOF 8
ENDMDL
MODEL 8
REMARK VINA RESULT:    -3.628     14.131     15.846
REMARK INTER + INTRA:          -5.566
REMARK INTER:                  -5.280
REMARK INTRA:                  -0.286
REMARK UNBOUND:                -0.453
REMARK  Name = 7983
REMARK  8 active torsions:
REMARK  status: ('A' for Active; 'I' for Inactive)
REMARK    1  A    between atoms: O_1  and  C_5
REMARK    2  A    between atoms: O_1  and  C_9
REMARK    3  A    between atoms: C_3  and  C_4
REMARK    4  A    between atoms: C_3  and  C_5
REMARK    5  A    between atoms: C_4  and  C_8
REMARK    6  A    between atoms: C_6  and  C_7
REMARK    7  A    between atoms: C_6  and  C_9
REMARK    8  A    between atoms: C_7  and  C_10
REMARK                            x       y       z     vdW  Elec       q    Type
REMARK                         _______ _______ _______ _____ _____    ______ ____
ROOT
ATOM      1  O   UNL     1      -1.601   9.806 -11.749  0.00  0.00    +0.000 OA
ENDROOT
BRANCH   1   2
ATOM      2  C   UNL     1      -0.331   9.282 -12.147  0.00  0.00    +0.000 C 
ATOM      3  H   UNL     1       0.209   8.930 -11.260  0.00  0.00    +0.000 HD
ATOM      4  H   UNL     1       0.251  10.073 -12.634  0.00  0.00    +0.000 HD
BRANCH   2   5
ATOM      5  C   UNL     1      -0.556   8.128 -13.114  0.00  0.00    +0.000 C 
ATOM      6  H   UNL     1      -1.493   7.617 -12.858  0.00  0.00    +0.000 HD
ATOM      7  H   UNL     1       0.238   7.383 -12.978  0.00  0.00    +0.000 HD
BRANCH   5   8
ATOM      8  C   UNL     1      -0.590   8.605 -14.563  0.00  0.00    +0.000 C 
ATOM      9  H   UNL     1      -1.437   9.285 -14.712  0.00  0.00    +0.000 HD
ATOM     10  H   UNL     1      -0.740   7.750 -15.233  0.00  0.00    +0.000 HD
BRANCH   8  11
ATOM     11  C   UNL     1       0.696   9.321 -14.944  0.00  0.00    +0.000 C 
ATOM     12  H   UNL     1       0.728   9.522 -16.020  0.00  0.00    +0.000 HD
ATOM     13  H   UNL     1       0.787  10.272 -14.412  0.00  0.00    +0.000 HD
ATOM     14  H   UNL     1       1.563   8.704 -14.688  0.00  0.00    +0.000 HD
ENDBRANCH   8  11
ENDBRANCH   5   8
ENDBRANCH   2   5
ENDBRANCH   1   2
BRANCH   1  16
ATOM     15  O   UNL     1      -1.601   9.728  -9.444  0.00  0.00    +0.000 OA
ATOM     16  C   UNL     1      -2.053   9.390 -10.529  0.00  0.00    +0.000 C 
BRANCH  16  17
ATOM     17  C   UNL     1      -3.209   8.438 -10.734  0.00  0.00    +0.000 C 
ATOM     18  H   UNL     1      -4.060   8.804 -10.147  0.00  0.00    +0.000 HD
ATOM     19  H   UNL     1      -3.477   8.448 -11.796  0.00  0.00    +0.000 HD
BRANCH  17  20
ATOM     20  C   UNL     1      -2.862   7.015 -10.305  0.00  0.00    +0.000 C 
ATOM     21  H   UNL     1      -3.222   6.300 -11.055  0.00  0.00    +0.000 HD
ATOM     22  H   UNL     1      -1.773   6.895 -10.252  0.00  0.00    +0.000 HD
BRANCH  20  23
ATOM     23  C   UNL     1      -3.469   6.676  -8.954  0.00  0.00    +0.000 C 
ATOM     24  H   UNL     1      -3.903   5.670  -8.974  0.00  0.00    +0.000 HD
ATOM     25  H   UNL     1      -2.710   6.701  -8.165  0.00  0.00    +0.000 HD
ATOM     26  H   UNL     1      -4.262   7.382  -8.691  0.00  0.00    +0.000 HD
ENDBRANCH  20  23
ENDBRANCH  17  20
ENDBRANCH  16  17
ENDBRANCH   1  16
TORSDOF 8
ENDMDL
MODEL 9
REMARK VINA RESULT:    -3.603     14.178     15.910
REMARK INTER + INTRA:          -5.530
REMARK INTER:                  -5.349
REMARK INTRA:                  -0.182
REMARK UNBOUND:                -0.453
REMARK  Name = 7983
REMARK  8 active torsions:
REMARK  status: ('A' for Active; 'I' for Inactive)
REMARK    1  A    between atoms: O_1  and  C_5
REMARK    2  A    between atoms: O_1  and  C_9
REMARK    3  A    between atoms: C_3  and  C_4
REMARK    4  A    between atoms: C_3  and  C_5
REMARK    5  A    between atoms: C_4  and  C_8
REMARK    6  A    between atoms: C_6  and  C_7
REMARK    7  A    between atoms: C_6  and  C_9
REMARK    8  A    between atoms: C_7  and  C_10
REMARK                            x       y       z     vdW  Elec       q    Type
REMARK                         _______ _______ _______ _____ _____    ______ ____
ROOT
ATOM      1  O   UNL     1      -8.675  10.344   9.219  0.00  0.00    +0.000 OA
ENDROOT
BRANCH   1   2
ATOM      2  C   UNL     1      -8.791  10.058   7.823  0.00  0.00    +0.000 C 
ATOM      3  H   UNL     1      -9.851   9.943   7.564  0.00  0.00    +0.000 HD
ATOM      4  H   UNL     1      -8.261   9.125   7.598  0.00  0.00    +0.000 HD
BRANCH   2   5
ATOM      5  C   UNL     1      -8.183  11.209   7.033  0.00  0.00    +0.000 C 
ATOM      6  H   UNL     1      -7.096  11.221   7.186  0.00  0.00    +0.000 HD
ATOM      7  H   UNL     1      -8.553  12.160   7.436  0.00  0.00    +0.000 HD
BRANCH   5   8
ATOM      8  C   UNL     1      -8.507  11.104   5.545  0.00  0.00    +0.000 C 
ATOM      9  H   UNL     1      -9.354  11.755   5.301  0.00  0.00    +0.000 HD
ATOM     10  H   UNL     1      -8.805  10.079   5.300  0.00  0.00    +0.000 HD
BRANCH   8  11
ATOM     11  C   UNL     1      -7.314  11.498   4.687  0.00  0.00    +0.000 C 
ATOM     12  H   UNL     1      -7.004  12.527   4.895  0.00  0.00    +0.000 HD
ATOM     13  H   UNL     1      -6.463  10.837   4.873  0.00  0.00    +0.000 HD
ATOM     14  H   UNL     1      -7.573  11.430   3.626  0.00  0.00    +0.000 HD
ENDBRANCH   8  11
ENDBRANCH   5   8
ENDBRANCH   2   5
ENDBRANCH   1   2
BRANCH   1  16
ATOM     15  O   UNL     1      -6.601   9.752  10.038  0.00  0.00    +0.000 OA
ATOM     16  C   UNL     1      -7.801   9.553   9.911  0.00  0.00    +0.000 C 
BRANCH  16  17
ATOM     17  C   UNL     1      -8.560   8.385  10.500  0.00  0.00    +0.000 C 
ATOM     18  H   UNL     1      -9.008   7.820   9.675  0.00  0.00    +0.000 HD
ATOM     19  H   UNL     1      -7.845   7.743  11.026  0.00  0.00    +0.000 HD
BRANCH  17  20
ATOM     20  C   UNL     1      -9.650   8.840  11.466  0.00  0.00    +0.000 C 
ATOM     21  H   UNL     1      -9.251   8.884  12.487  0.00  0.00    +0.000 HD
ATOM     22  H   UNL     1      -9.977   9.855  11.211  0.00  0.00    +0.000 HD
BRANCH  20  23
ATOM     23  C   UNL     1     -10.849   7.906  11.434  0.00  0.00    +0.000 C 
ATOM     24  H   UNL     1     -10.601   6.989  10.889  0.00  0.00    +0.000 HD
ATOM     25  H   UNL     1     -11.154   7.625  12.447  0.00  0.00    +0.000 HD
ATOM     26  H   UNL     1     -11.701   8.377  10.935  0.00  0.00    +0.000 HD
ENDBRANCH  20  23
ENDBRANCH  17  20
ENDBRANCH  16  17
ENDBRANCH   1  16
TORSDOF 8
ENDMDL
MODEL 10
REMARK VINA RESULT:    -3.462     14.300     15.911
REMARK INTER + INTRA:          -5.333
REMARK INTER:                  -4.879
REMARK INTRA:                  -0.453
REMARK UNBOUND:                -0.453
REMARK  Name = 7983
REMARK  8 active torsions:
REMARK  status: ('A' for Active; 'I' for Inactive)
REMARK    1  A    between atoms: O_1  and  C_5
REMARK    2  A    between atoms: O_1  and  C_9
REMARK    3  A    between atoms: C_3  and  C_4
REMARK    4  A    between atoms: C_3  and  C_5
REMARK    5  A    between atoms: C_4  and  C_8
REMARK    6  A    between atoms: C_6  and  C_7
REMARK    7  A    between atoms: C_6  and  C_9
REMARK    8  A    between atoms: C_7  and  C_10
REMARK                            x       y       z     vdW  Elec       q    Type
REMARK                         _______ _______ _______ _____ _____    ______ ____
ROOT
ATOM      1  O   UNL     1      -3.531   9.033 -12.194  0.00  0.00    +0.000 OA
ENDROOT
BRANCH   1   2
ATOM      2  C   UNL     1      -3.983   7.741 -12.609  0.00  0.00    +0.000 C 
ATOM      3  H   UNL     1      -3.176   7.234 -13.153  0.00  0.00    +0.000 HD
ATOM      4  H   UNL     1      -4.848   7.855 -13.272  0.00  0.00    +0.000 HD
BRANCH   2   5
ATOM      5  C   UNL     1      -4.369   6.934 -11.377  0.00  0.00    +0.000 C 
ATOM      6  H   UNL     1      -4.851   5.999 -11.691  0.00  0.00    +0.000 HD
ATOM      7  H   UNL     1      -5.128   7.486 -10.808  0.00  0.00    +0.000 HD
BRANCH   5   8
ATOM      8  C   UNL     1      -3.160   6.638 -10.496  0.00  0.00    +0.000 C 
ATOM      9  H   UNL     1      -2.357   7.351 -10.711  0.00  0.00    +0.000 HD
ATOM     10  H   UNL     1      -2.773   5.637 -10.718  0.00  0.00    +0.000 HD
BRANCH   8  11
ATOM     11  C   UNL     1      -3.514   6.719  -9.019  0.00  0.00    +0.000 C 
ATOM     12  H   UNL     1      -3.091   7.621  -8.564  0.00  0.00    +0.000 HD
ATOM     13  H   UNL     1      -4.598   6.737  -8.876  0.00  0.00    +0.000 HD
ATOM     14  H   UNL     1      -3.115   5.851  -8.485  0.00  0.00    +0.000 HD
ENDBRANCH   8  11
ENDBRANCH   5   8
ENDBRANCH   2   5
ENDBRANCH   1   2
BRANCH   1  16
ATOM     15  O   UNL     1      -2.617  10.169 -13.981  0.00  0.00    +0.000 OA
ATOM     16  C   UNL     1      -2.506   9.561 -12.925  0.00  0.00    +0.000 C 
BRANCH  16  17
ATOM     17  C   UNL     1      -1.201   9.273 -12.218  0.00  0.00    +0.000 C 
ATOM     18  H   UNL     1      -1.244   8.250 -11.827  0.00  0.00    +0.000 HD
ATOM     19  H   UNL     1      -0.391   9.341 -12.952  0.00  0.00    +0.000 HD
BRANCH  17  20
ATOM     20  C   UNL     1      -0.942  10.250 -11.075  0.00  0.00    +0.000 C 
ATOM     21  H   UNL     1       0.125  10.503 -11.033  0.00  0.00    +0.000 HD
ATOM     22  H   UNL     1      -1.482  11.188 -11.254  0.00  0.00    +0.000 HD
BRANCH  20  23
ATOM     23  C   UNL     1      -1.375   9.672  -9.738  0.00  0.00    +0.000 C 
ATOM     24  H   UNL     1      -1.204   8.591  -9.718  0.00  0.00    +0.000 HD
ATOM     25  H   UNL     1      -0.809  10.119  -8.914  0.00  0.00    +0.000 HD
ATOM     26  H   UNL     1      -2.440   9.849  -9.559  0.00  0.00    +0.000 HD
ENDBRANCH  20  23
ENDBRANCH  17  20
ENDBRANCH  16  17
ENDBRANCH   1  16
TORSDOF 8
ENDMDL
