MODEL 1
REMARK VINA RESULT:    -3.650      0.000      0.000
REMARK INTER + INTRA:          -5.027
REMARK INTER:                  -4.729
REMARK INTRA:                  -0.298
REMARK UNBOUND:                -0.310
REMARK  Name = 31272
REMARK  6 active torsions:
REMARK  status: ('A' for Active; 'I' for Inactive)
REMARK    1  A    between atoms: O_1  and  C_5
REMARK    2  A    between atoms: O_1  and  C_7
REMARK    3  A    between atoms: C_3  and  C_4
REMARK    4  A    between atoms: C_3  and  C_5
REMARK    5  A    between atoms: C_4  and  C_6
REMARK    6  A    between atoms: C_7  and  C_8
REMARK                            x       y       z     vdW  Elec       q    Type
REMARK                         _______ _______ _______ _____ _____    ______ ____
ROOT
ATOM      1  C   UNL     1       6.926  11.224  -1.244  0.00  0.00    +0.000 C 
ATOM      2  H   UNL     1       7.699  11.997  -1.338  0.00  0.00    +0.000 HD
ATOM      3  H   UNL     1       6.318  11.296  -2.155  0.00  0.00    +0.000 HD
ENDROOT
BRANCH   1   4
ATOM      4  C   UNL     1       7.570   9.843  -1.148  0.00  0.00    +0.000 C 
ATOM      5  H   UNL     1       8.541   9.848  -1.658  0.00  0.00    +0.000 HD
ATOM      6  H   UNL     1       6.941   9.103  -1.654  0.00  0.00    +0.000 HD
BRANCH   4   7
ATOM      7  C   UNL     1       7.773   9.423   0.299  0.00  0.00    +0.000 C 
ATOM      8  H   UNL     1       7.795  10.293   0.962  0.00  0.00    +0.000 HD
ATOM      9  H   UNL     1       6.968   8.758   0.631  0.00  0.00    +0.000 HD
ATOM     10  H   UNL     1       8.722   8.888   0.409  0.00  0.00    +0.000 HD
ENDBRANCH   4   7
ENDBRANCH   1   4
BRANCH   1  11
ATOM     11  C   UNL     1       6.054  11.523  -0.034  0.00  0.00    +0.000 C 
ATOM     12  H   UNL     1       6.306  10.841   0.788  0.00  0.00    +0.000 HD
ATOM     13  H   UNL     1       6.211  12.556   0.296  0.00  0.00    +0.000 HD
BRANCH  11  14
ATOM     14  O   UNL     1       4.692  11.342  -0.394  0.00  0.00    +0.000 OA
BRANCH  14  16
ATOM     15  O   UNL     1       3.264  11.322   1.422  0.00  0.00    +0.000 OA
ATOM     16  C   UNL     1       3.899  10.747   0.548  0.00  0.00    +0.000 C 
BRANCH  16  17
ATOM     17  C   UNL     1       3.912   9.259   0.363  0.00  0.00    +0.000 C 
ATOM     18  H   UNL     1       4.117   8.769   1.318  0.00  0.00    +0.000 HD
ATOM     19  H   UNL     1       4.666   8.985  -0.380  0.00  0.00    +0.000 HD
ATOM     20  H   UNL     1       2.933   8.929   0.005  0.00  0.00    +0.000 HD
ENDBRANCH  16  17
ENDBRANCH  14  16
ENDBRANCH  11  14
ENDBRANCH   1  11
TORSDOF 6
ENDMDL
MODEL 2
REMARK VINA RESULT:    -3.635      2.790      3.957
REMARK INTER + INTRA:          -5.007
REMARK INTER:                  -4.893
REMARK INTRA:                  -0.114
REMARK UNBOUND:                -0.310
REMARK  Name = 31272
REMARK  6 active torsions:
REMARK  status: ('A' for Active; 'I' for Inactive)
REMARK    1  A    between atoms: O_1  and  C_5
REMARK    2  A    between atoms: O_1  and  C_7
REMARK    3  A    between atoms: C_3  and  C_4
REMARK    4  A    between atoms: C_3  and  C_5
REMARK    5  A    between atoms: C_4  and  C_6
REMARK    6  A    between atoms: C_7  and  C_8
REMARK                            x       y       z     vdW  Elec       q    Type
REMARK                         _______ _______ _______ _____ _____    ______ ____
ROOT
ATOM      1  C   UNL     1       4.510   8.464   3.485  0.00  0.00    +0.000 C 
ATOM      2  H   UNL     1       3.555   8.448   4.023  0.00  0.00    +0.000 HD
ATOM      3  H   UNL     1       5.125   9.221   3.987  0.00  0.00    +0.000 HD
ENDROOT
BRANCH   1   4
ATOM      4  C   UNL     1       5.185   7.097   3.566  0.00  0.00    +0.000 C 
ATOM      5  H   UNL     1       5.703   6.880   2.623  0.00  0.00    +0.000 HD
ATOM      6  H   UNL     1       4.429   6.317   3.708  0.00  0.00    +0.000 HD
BRANCH   4   7
ATOM      7  C   UNL     1       6.188   7.038   4.707  0.00  0.00    +0.000 C 
ATOM      8  H   UNL     1       5.920   7.740   5.502  0.00  0.00    +0.000 HD
ATOM      9  H   UNL     1       6.233   6.032   5.138  0.00  0.00    +0.000 HD
ATOM     10  H   UNL     1       7.188   7.299   4.346  0.00  0.00    +0.000 HD
ENDBRANCH   4   7
ENDBRANCH   1   4
BRANCH   1  11
ATOM     11  C   UNL     1       4.272   8.888   2.043  0.00  0.00    +0.000 C 
ATOM     12  H   UNL     1       5.231   9.071   1.542  0.00  0.00    +0.000 HD
ATOM     13  H   UNL     1       3.731   8.102   1.505  0.00  0.00    +0.000 HD
BRANCH  11  14
ATOM     14  O   UNL     1       3.503  10.082   2.037  0.00  0.00    +0.000 OA
BRANCH  14  16
ATOM     15  O   UNL     1       2.919  11.831   0.645  0.00  0.00    +0.000 OA
ATOM     16  C   UNL     1       3.601  10.850   0.909  0.00  0.00    +0.000 C 
BRANCH  16  17
ATOM     17  C   UNL     1       4.682  10.316   0.019  0.00  0.00    +0.000 C 
ATOM     18  H   UNL     1       4.403  10.459  -1.029  0.00  0.00    +0.000 HD
ATOM     19  H   UNL     1       4.848   9.257   0.232  0.00  0.00    +0.000 HD
ATOM     20  H   UNL     1       5.611  10.860   0.209  0.00  0.00    +0.000 HD
ENDBRANCH  16  17
ENDBRANCH  14  16
ENDBRANCH  11  14
ENDBRANCH   1  11
TORSDOF 6
ENDMDL
MODEL 3
REMARK VINA RESULT:    -3.582      1.861      2.321
REMARK INTER + INTRA:          -4.938
REMARK INTER:                  -4.831
REMARK INTRA:                  -0.107
REMARK UNBOUND:                -0.310
REMARK  Name = 31272
REMARK  6 active torsions:
REMARK  status: ('A' for Active; 'I' for Inactive)
REMARK    1  A    between atoms: O_1  and  C_5
REMARK    2  A    between atoms: O_1  and  C_7
REMARK    3  A    between atoms: C_3  and  C_4
REMARK    4  A    between atoms: C_3  and  C_5
REMARK    5  A    between atoms: C_4  and  C_6
REMARK    6  A    between atoms: C_7  and  C_8
REMARK                            x       y       z     vdW  Elec       q    Type
REMARK                         _______ _______ _______ _____ _____    ______ ____
ROOT
ATOM      1  C   UNL     1       6.527   8.618   0.671  0.00  0.00    +0.000 C 
ATOM      2  H   UNL     1       6.812   8.941  -0.338  0.00  0.00    +0.000 HD
ATOM      3  H   UNL     1       6.445   7.525   0.625  0.00  0.00    +0.000 HD
ENDROOT
BRANCH   1   4
ATOM      4  C   UNL     1       7.599   9.025   1.679  0.00  0.00    +0.000 C 
ATOM      5  H   UNL     1       7.727  10.115   1.668  0.00  0.00    +0.000 HD
ATOM      6  H   UNL     1       8.561   8.583   1.397  0.00  0.00    +0.000 HD
BRANCH   4   7
ATOM      7  C   UNL     1       7.236   8.583   3.087  0.00  0.00    +0.000 C 
ATOM      8  H   UNL     1       6.205   8.222   3.133  0.00  0.00    +0.000 HD
ATOM      9  H   UNL     1       7.897   7.779   3.428  0.00  0.00    +0.000 HD
ATOM     10  H   UNL     1       7.334   9.422   3.784  0.00  0.00    +0.000 HD
ENDBRANCH   4   7
ENDBRANCH   1   4
BRANCH   1  11
ATOM     11  C   UNL     1       5.170   9.207   1.027  0.00  0.00    +0.000 C 
ATOM     12  H   UNL     1       4.372   8.633   0.541  0.00  0.00    +0.000 HD
ATOM     13  H   UNL     1       5.021   9.180   2.112  0.00  0.00    +0.000 HD
BRANCH  11  14
ATOM     14  O   UNL     1       5.121  10.554   0.576  0.00  0.00    +0.000 OA
BRANCH  14  16
ATOM     15  O   UNL     1       3.123  11.433   1.331  0.00  0.00    +0.000 OA
ATOM     16  C   UNL     1       3.872  11.088   0.426  0.00  0.00    +0.000 C 
BRANCH  16  17
ATOM     17  C   UNL     1       3.534  11.200  -1.030  0.00  0.00    +0.000 C 
ATOM     18  H   UNL     1       3.628  10.221  -1.508  0.00  0.00    +0.000 HD
ATOM     19  H   UNL     1       4.194  11.927  -1.509  0.00  0.00    +0.000 HD
ATOM     20  H   UNL     1       2.501  11.543  -1.138  0.00  0.00    +0.000 HD
ENDBRANCH  16  17
ENDBRANCH  14  16
ENDBRANCH  11  14
ENDBRANCH   1  11
TORSDOF 6
ENDMDL
MODEL 4
REMARK VINA RESULT:    -3.437     13.384     14.343
REMARK INTER + INTRA:          -4.752
REMARK INTER:                  -4.560
REMARK INTRA:                  -0.191
REMARK UNBOUND:                -0.310
REMARK  Name = 31272
REMARK  6 active torsions:
REMARK  status: ('A' for Active; 'I' for Inactive)
REMARK    1  A    between atoms: O_1  and  C_5
REMARK    2  A    between atoms: O_1  and  C_7
REMARK    3  A    between atoms: C_3  and  C_4
REMARK    4  A    between atoms: C_3  and  C_5
REMARK    5  A    between atoms: C_4  and  C_6
REMARK    6  A    between atoms: C_7  and  C_8
REMARK                            x       y       z     vdW  Elec       q    Type
REMARK                         _______ _______ _______ _____ _____    ______ ____
ROOT
ATOM      1  C   UNL     1      -3.208   6.745 -11.461  0.00  0.00    +0.000 C 
ATOM      2  H   UNL     1      -3.443   5.679 -11.573  0.00  0.00    +0.000 HD
ATOM      3  H   UNL     1      -4.135   7.283 -11.698  0.00  0.00    +0.000 HD
ENDROOT
BRANCH   1   4
ATOM      4  C   UNL     1      -2.776   7.044 -10.027  0.00  0.00    +0.000 C 
ATOM      5  H   UNL     1      -2.532   8.108  -9.925  0.00  0.00    +0.000 HD
ATOM      6  H   UNL     1      -1.870   6.478  -9.786  0.00  0.00    +0.000 HD
BRANCH   4   7
ATOM      7  C   UNL     1      -3.869   6.689  -9.032  0.00  0.00    +0.000 C 
ATOM      8  H   UNL     1      -3.691   5.706  -8.585  0.00  0.00    +0.000 HD
ATOM      9  H   UNL     1      -3.920   7.428  -8.225  0.00  0.00    +0.000 HD
ATOM     10  H   UNL     1      -4.843   6.663  -9.532  0.00  0.00    +0.000 HD
ENDBRANCH   4   7
ENDBRANCH   1   4
BRANCH   1  11
ATOM     11  C   UNL     1      -2.132   7.135 -12.464  0.00  0.00    +0.000 C 
ATOM     12  H   UNL     1      -1.820   6.255 -13.040  0.00  0.00    +0.000 HD
ATOM     13  H   UNL     1      -2.518   7.895 -13.152  0.00  0.00    +0.000 HD
BRANCH  11  14
ATOM     14  O   UNL     1      -1.015   7.657 -11.759  0.00  0.00    +0.000 OA
BRANCH  14  16
ATOM     15  O   UNL     1       0.201   8.925 -13.259  0.00  0.00    +0.000 OA
ATOM     16  C   UNL     1      -0.487   8.818 -12.252  0.00  0.00    +0.000 C 
BRANCH  16  17
ATOM     17  C   UNL     1      -0.873   9.970 -11.374  0.00  0.00    +0.000 C 
ATOM     18  H   UNL     1      -0.564   9.770 -10.345  0.00  0.00    +0.000 HD
ATOM     19  H   UNL     1      -1.953  10.131 -11.429  0.00  0.00    +0.000 HD
ATOM     20  H   UNL     1      -0.368  10.876 -11.721  0.00  0.00    +0.000 HD
ENDBRANCH  16  17
ENDBRANCH  14  16
ENDBRANCH  11  14
ENDBRANCH   1  11
TORSDOF 6
ENDMDL
MODEL 5
REMARK VINA RESULT:    -3.375     12.945     13.822
REMARK INTER + INTRA:          -4.671
REMARK INTER:                  -4.343
REMARK INTRA:                  -0.328
REMARK UNBOUND:                -0.310
REMARK  Name = 31272
REMARK  6 active torsions:
REMARK  status: ('A' for Active; 'I' for Inactive)
REMARK    1  A    between atoms: O_1  and  C_5
REMARK    2  A    between atoms: O_1  and  C_7
REMARK    3  A    between atoms: C_3  and  C_4
REMARK    4  A    between atoms: C_3  and  C_5
REMARK    5  A    between atoms: C_4  and  C_6
REMARK    6  A    between atoms: C_7  and  C_8
REMARK                            x       y       z     vdW  Elec       q    Type
REMARK                         _______ _______ _______ _____ _____    ______ ____
ROOT
ATOM      1  C   UNL     1      -2.760   9.760  -9.815  0.00  0.00    +0.000 C 
ATOM      2  H   UNL     1      -3.429   9.582 -10.665  0.00  0.00    +0.000 HD
ATOM      3  H   UNL     1      -3.102  10.695  -9.354  0.00  0.00    +0.000 HD
ENDROOT
BRANCH   1   4
ATOM      4  C   UNL     1      -2.859   8.611  -8.814  0.00  0.00    +0.000 C 
ATOM      5  H   UNL     1      -3.655   8.818  -8.087  0.00  0.00    +0.000 HD
ATOM      6  H   UNL     1      -1.922   8.524  -8.254  0.00  0.00    +0.000 HD
BRANCH   4   7
ATOM      7  C   UNL     1      -3.154   7.292  -9.509  0.00  0.00    +0.000 C 
ATOM      8  H   UNL     1      -2.921   6.444  -8.858  0.00  0.00    +0.000 HD
ATOM      9  H   UNL     1      -4.209   7.226  -9.795  0.00  0.00    +0.000 HD
ATOM     10  H   UNL     1      -2.548   7.199 -10.417  0.00  0.00    +0.000 HD
ENDBRANCH   4   7
ENDBRANCH   1   4
BRANCH   1  11
ATOM     11  C   UNL     1      -1.336   9.943 -10.320  0.00  0.00    +0.000 C 
ATOM     12  H   UNL     1      -0.874  10.811  -9.834  0.00  0.00    +0.000 HD
ATOM     13  H   UNL     1      -0.742   9.049 -10.098  0.00  0.00    +0.000 HD
BRANCH  11  14
ATOM     14  O   UNL     1      -1.370  10.152 -11.724  0.00  0.00    +0.000 OA
BRANCH  14  16
ATOM     15  O   UNL     1      -2.615   8.905 -13.219  0.00  0.00    +0.000 OA
ATOM     16  C   UNL     1      -1.646   9.050 -12.486  0.00  0.00    +0.000 C 
BRANCH  16  17
ATOM     17  C   UNL     1      -0.575   8.018 -12.299  0.00  0.00    +0.000 C 
ATOM     18  H   UNL     1      -1.031   7.041 -12.115  0.00  0.00    +0.000 HD
ATOM     19  H   UNL     1       0.073   8.303 -11.466  0.00  0.00    +0.000 HD
ATOM     20  H   UNL     1       0.031   7.955 -13.207  0.00  0.00    +0.000 HD
ENDBRANCH  16  17
ENDBRANCH  14  16
ENDBRANCH  11  14
ENDBRANCH   1  11
TORSDOF 6
ENDMDL
MODEL 6
REMARK VINA RESULT:    -3.333     13.830     15.016
REMARK INTER + INTRA:          -4.616
REMARK INTER:                  -4.448
REMARK INTRA:                  -0.168
REMARK UNBOUND:                -0.310
REMARK  Name = 31272
REMARK  6 active torsions:
REMARK  status: ('A' for Active; 'I' for Inactive)
REMARK    1  A    between atoms: O_1  and  C_5
REMARK    2  A    between atoms: O_1  and  C_7
REMARK    3  A    between atoms: C_3  and  C_4
REMARK    4  A    between atoms: C_3  and  C_5
REMARK    5  A    between atoms: C_4  and  C_6
REMARK    6  A    between atoms: C_7  and  C_8
REMARK                            x       y       z     vdW  Elec       q    Type
REMARK                         _______ _______ _______ _____ _____    ______ ____
ROOT
ATOM      1  C   UNL     1      -7.311  11.662   4.713  0.00  0.00    +0.000 C 
ATOM      2  H   UNL     1      -7.464  11.380   3.664  0.00  0.00    +0.000 HD
ATOM      3  H   UNL     1      -6.324  11.270   4.988  0.00  0.00    +0.000 HD
ENDROOT
BRANCH   1   4
ATOM      4  C   UNL     1      -7.335  13.182   4.859  0.00  0.00    +0.000 C 
ATOM      5  H   UNL     1      -8.103  13.475   5.586  0.00  0.00    +0.000 HD
ATOM      6  H   UNL     1      -7.600  13.644   3.902  0.00  0.00    +0.000 HD
BRANCH   4   7
ATOM      7  C   UNL     1      -5.989  13.718   5.319  0.00  0.00    +0.000 C 
ATOM      8  H   UNL     1      -5.173  13.298   4.723  0.00  0.00    +0.000 HD
ATOM      9  H   UNL     1      -5.951  14.809   5.233  0.00  0.00    +0.000 HD
ATOM     10  H   UNL     1      -5.814  13.454   6.368  0.00  0.00    +0.000 HD
ENDBRANCH   4   7
ENDBRANCH   1   4
BRANCH   1  11
ATOM     11  C   UNL     1      -8.373  10.998   5.576  0.00  0.00    +0.000 C 
ATOM     12  H   UNL     1      -9.354  11.077   5.092  0.00  0.00    +0.000 HD
ATOM     13  H   UNL     1      -8.130   9.940   5.723  0.00  0.00    +0.000 HD
BRANCH  11  14
ATOM     14  O   UNL     1      -8.417  11.654   6.836  0.00  0.00    +0.000 OA
BRANCH  14  16
ATOM     15  O   UNL     1      -7.772  11.161   8.999  0.00  0.00    +0.000 OA
ATOM     16  C   UNL     1      -8.287  10.848   7.933  0.00  0.00    +0.000 C 
BRANCH  16  17
ATOM     17  C   UNL     1      -8.874   9.499   7.650  0.00  0.00    +0.000 C 
ATOM     18  H   UNL     1      -9.860   9.614   7.190  0.00  0.00    +0.000 HD
ATOM     19  H   UNL     1      -8.946   8.924   8.577  0.00  0.00    +0.000 HD
ATOM     20  H   UNL     1      -8.226   8.959   6.954  0.00  0.00    +0.000 HD
ENDBRANCH  16  17
ENDBRANCH  14  16
ENDBRANCH  11  14
ENDBRANCH   1  11
TORSDOF 6
ENDMDL
MODEL 7
REMARK VINA RESULT:    -3.242      6.044      7.106
REMARK INTER + INTRA:          -4.499
REMARK INTER:                  -4.380
REMARK INTRA:                  -0.119
REMARK UNBOUND:                -0.310
REMARK  Name = 31272
REMARK  6 active torsions:
REMARK  status: ('A' for Active; 'I' for Inactive)
REMARK    1  A    between atoms: O_1  and  C_5
REMARK    2  A    between atoms: O_1  and  C_7
REMARK    3  A    between atoms: C_3  and  C_4
REMARK    4  A    between atoms: C_3  and  C_5
REMARK    5  A    between atoms: C_4  and  C_6
REMARK    6  A    between atoms: C_7  and  C_8
REMARK                            x       y       z     vdW  Elec       q    Type
REMARK                         _______ _______ _______ _____ _____    ______ ____
ROOT
ATOM      1  C   UNL     1       6.871   7.587   5.076  0.00  0.00    +0.000 C 
ATOM      2  H   UNL     1       6.853   7.001   6.003  0.00  0.00    +0.000 HD
ATOM      3  H   UNL     1       7.404   6.972   4.341  0.00  0.00    +0.000 HD
ENDROOT
BRANCH   1   4
ATOM      4  C   UNL     1       5.447   7.865   4.600  0.00  0.00    +0.000 C 
ATOM      5  H   UNL     1       5.425   8.787   4.005  0.00  0.00    +0.000 HD
ATOM      6  H   UNL     1       4.789   8.019   5.462  0.00  0.00    +0.000 HD
BRANCH   4   7
ATOM      7  C   UNL     1       4.909   6.720   3.757  0.00  0.00    +0.000 C 
ATOM      8  H   UNL     1       4.823   7.011   2.706  0.00  0.00    +0.000 HD
ATOM      9  H   UNL     1       5.566   5.845   3.819  0.00  0.00    +0.000 HD
ATOM     10  H   UNL     1       3.915   6.424   4.110  0.00  0.00    +0.000 HD
ENDBRANCH   4   7
ENDBRANCH   1   4
BRANCH   1  11
ATOM     11  C   UNL     1       7.646   8.876   5.307  0.00  0.00    +0.000 C 
ATOM     12  H   UNL     1       8.638   8.649   5.716  0.00  0.00    +0.000 HD
ATOM     13  H   UNL     1       7.763   9.418   4.362  0.00  0.00    +0.000 HD
BRANCH  11  14
ATOM     14  O   UNL     1       6.931   9.683   6.232  0.00  0.00    +0.000 OA
BRANCH  14  16
ATOM     15  O   UNL     1       7.438  11.360   7.738  0.00  0.00    +0.000 OA
ATOM     16  C   UNL     1       7.680  10.285   7.204  0.00  0.00    +0.000 C 
BRANCH  16  17
ATOM     17  C   UNL     1       8.867   9.433   7.537  0.00  0.00    +0.000 C 
ATOM     18  H   UNL     1       8.537   8.517   8.036  0.00  0.00    +0.000 HD
ATOM     19  H   UNL     1       9.557   9.991   8.174  0.00  0.00    +0.000 HD
ATOM     20  H   UNL     1       9.388   9.159   6.615  0.00  0.00    +0.000 HD
ENDBRANCH  16  17
ENDBRANCH  14  16
ENDBRANCH  11  14
ENDBRANCH   1  11
TORSDOF 6
ENDMDL
MODEL 8
REMARK VINA RESULT:    -3.204      6.216      6.997
REMARK INTER + INTRA:          -4.450
REMARK INTER:                  -4.245
REMARK INTRA:                  -0.205
REMARK UNBOUND:                -0.310
REMARK  Name = 31272
REMARK  6 active torsions:
REMARK  status: ('A' for Active; 'I' for Inactive)
REMARK    1  A    between atoms: O_1  and  C_5
REMARK    2  A    between atoms: O_1  and  C_7
REMARK    3  A    between atoms: C_3  and  C_4
REMARK    4  A    between atoms: C_3  and  C_5
REMARK    5  A    between atoms: C_4  and  C_6
REMARK    6  A    between atoms: C_7  and  C_8
REMARK                            x       y       z     vdW  Elec       q    Type
REMARK                         _______ _______ _______ _____ _____    ______ ____
ROOT
ATOM      1  C   UNL     1       8.763   9.985   6.739  0.00  0.00    +0.000 C 
ATOM      2  H   UNL     1       8.337  10.996   6.752  0.00  0.00    +0.000 HD
ATOM      3  H   UNL     1       9.798  10.099   6.394  0.00  0.00    +0.000 HD
ENDROOT
BRANCH   1   4
ATOM      4  C   UNL     1       8.739   9.385   8.143  0.00  0.00    +0.000 C 
ATOM      5  H   UNL     1       7.722   9.435   8.553  0.00  0.00    +0.000 HD
ATOM      6  H   UNL     1       9.387   9.967   8.808  0.00  0.00    +0.000 HD
BRANCH   4   7
ATOM      7  C   UNL     1       9.199   7.936   8.137  0.00  0.00    +0.000 C 
ATOM      8  H   UNL     1       9.471   7.614   7.128  0.00  0.00    +0.000 HD
ATOM      9  H   UNL     1      10.069   7.798   8.788  0.00  0.00    +0.000 HD
ATOM     10  H   UNL     1       8.397   7.283   8.498  0.00  0.00    +0.000 HD
ENDBRANCH   4   7
ENDBRANCH   1   4
BRANCH   1  11
ATOM     11  C   UNL     1       7.995   9.124   5.748  0.00  0.00    +0.000 C 
ATOM     12  H   UNL     1       8.277   9.390   4.722  0.00  0.00    +0.000 HD
ATOM     13  H   UNL     1       8.219   8.065   5.917  0.00  0.00    +0.000 HD
BRANCH  11  14
ATOM     14  O   UNL     1       6.603   9.348   5.926  0.00  0.00    +0.000 OA
BRANCH  14  16
ATOM     15  O   UNL     1       4.654   8.896   4.771  0.00  0.00    +0.000 OA
ATOM     16  C   UNL     1       5.772   8.581   5.158  0.00  0.00    +0.000 C 
BRANCH  16  17
ATOM     17  C   UNL     1       6.428   7.270   4.845  0.00  0.00    +0.000 C 
ATOM     18  H   UNL     1       6.863   7.304   3.843  0.00  0.00    +0.000 HD
ATOM     19  H   UNL     1       5.696   6.462   4.921  0.00  0.00    +0.000 HD
ATOM     20  H   UNL     1       7.229   7.084   5.567  0.00  0.00    +0.000 HD
ENDBRANCH  16  17
ENDBRANCH  14  16
ENDBRANCH  11  14
ENDBRANCH   1  11
TORSDOF 6
ENDMDL
MODEL 9
REMARK VINA RESULT:    -3.089     22.338     24.227
REMARK INTER + INTRA:          -4.302
REMARK INTER:                  -4.059
REMARK INTRA:                  -0.243
REMARK UNBOUND:                -0.310
REMARK  Name = 31272
REMARK  6 active torsions:
REMARK  status: ('A' for Active; 'I' for Inactive)
REMARK    1  A    between atoms: O_1  and  C_5
REMARK    2  A    between atoms: O_1  and  C_7
REMARK    3  A    between atoms: C_3  and  C_4
REMARK    4  A    between atoms: C_3  and  C_5
REMARK    5  A    between atoms: C_4  and  C_6
REMARK    6  A    between atoms: C_7  and  C_8
REMARK                            x       y       z     vdW  Elec       q    Type
REMARK                         _______ _______ _______ _____ _____    ______ ____
ROOT
ATOM      1  C   UNL     1     -10.029   8.221  20.057  0.00  0.00    +0.000 C 
ATOM      2  H   UNL     1      -9.021   8.266  20.488  0.00  0.00    +0.000 HD
ATOM      3  H   UNL     1     -10.490   7.313  20.466  0.00  0.00    +0.000 HD
ENDROOT
BRANCH   1   4
ATOM      4  C   UNL     1     -10.834   9.452  20.467  0.00  0.00    +0.000 C 
ATOM      5  H   UNL     1     -10.157  10.297  20.646  0.00  0.00    +0.000 HD
ATOM      6  H   UNL     1     -11.363   9.255  21.406  0.00  0.00    +0.000 HD
BRANCH   4   7
ATOM      7  C   UNL     1     -11.840   9.841  19.396  0.00  0.00    +0.000 C 
ATOM      8  H   UNL     1     -12.841   9.959  19.821  0.00  0.00    +0.000 HD
ATOM      9  H   UNL     1     -11.556  10.784  18.917  0.00  0.00    +0.000 HD
ATOM     10  H   UNL     1     -11.888   9.067  18.623  0.00  0.00    +0.000 HD
ENDBRANCH   4   7
ENDBRANCH   1   4
BRANCH   1  11
ATOM     11  C   UNL     1      -9.928   8.094  18.545  0.00  0.00    +0.000 C 
ATOM     12  H   UNL     1      -9.963   7.037  18.253  0.00  0.00    +0.000 HD
ATOM     13  H   UNL     1     -10.759   8.626  18.067  0.00  0.00    +0.000 HD
BRANCH  11  14
ATOM     14  O   UNL     1      -8.696   8.659  18.118  0.00  0.00    +0.000 OA
BRANCH  14  16
ATOM     15  O   UNL     1      -9.781   9.926  16.519  0.00  0.00    +0.000 OA
ATOM     16  C   UNL     1      -8.787   9.647  17.177  0.00  0.00    +0.000 C 
BRANCH  16  17
ATOM     17  C   UNL     1      -7.474  10.360  17.055  0.00  0.00    +0.000 C 
ATOM     18  H   UNL     1      -6.990  10.415  18.035  0.00  0.00    +0.000 HD
ATOM     19  H   UNL     1      -7.633  11.362  16.648  0.00  0.00    +0.000 HD
ATOM     20  H   UNL     1      -6.821   9.806  16.375  0.00  0.00    +0.000 HD
ENDBRANCH  16  17
ENDBRANCH  14  16
ENDBRANCH  11  14
ENDBRANCH   1  11
TORSDOF 6
ENDMDL
MODEL 10
REMARK VINA RESULT:    -3.047     22.035     23.861
REMARK INTER + INTRA:          -4.247
REMARK INTER:                  -3.938
REMARK INTRA:                  -0.310
REMARK UNBOUND:                -0.310
REMARK  Name = 31272
REMARK  6 active torsions:
REMARK  status: ('A' for Active; 'I' for Inactive)
REMARK    1  A    between atoms: O_1  and  C_5
REMARK    2  A    between atoms: O_1  and  C_7
REMARK    3  A    between atoms: C_3  and  C_4
REMARK    4  A    between atoms: C_3  and  C_5
REMARK    5  A    between atoms: C_4  and  C_6
REMARK    6  A    between atoms: C_7  and  C_8
REMARK                            x       y       z     vdW  Elec       q    Type
REMARK                         _______ _______ _______ _____ _____    ______ ____
ROOT
ATOM      1  C   UNL     1     -10.022  10.384  19.872  0.00  0.00    +0.000 C 
ATOM      2  H   UNL     1     -10.406  11.097  20.611  0.00  0.00    +0.000 HD
ATOM      3  H   UNL     1      -8.944  10.304  20.063  0.00  0.00    +0.000 HD
ENDROOT
BRANCH   1   4
ATOM      4  C   UNL     1     -10.692   9.024  20.053  0.00  0.00    +0.000 C 
ATOM      5  H   UNL     1     -11.580   8.957  19.412  0.00  0.00    +0.000 HD
ATOM      6  H   UNL     1     -11.030   8.911  21.089  0.00  0.00    +0.000 HD
BRANCH   4   7
ATOM      7  C   UNL     1      -9.745   7.886  19.707  0.00  0.00    +0.000 C 
ATOM      8  H   UNL     1      -9.131   8.137  18.837  0.00  0.00    +0.000 HD
ATOM      9  H   UNL     1      -9.078   7.662  20.546  0.00  0.00    +0.000 HD
ATOM     10  H   UNL     1     -10.313   6.979  19.472  0.00  0.00    +0.000 HD
ENDBRANCH   4   7
ENDBRANCH   1   4
BRANCH   1  11
ATOM     11  C   UNL     1     -10.243  10.937  18.472  0.00  0.00    +0.000 C 
ATOM     12  H   UNL     1     -10.875  10.252  17.894  0.00  0.00    +0.000 HD
ATOM     13  H   UNL     1     -10.733  11.916  18.528  0.00  0.00    +0.000 HD
BRANCH  11  14
ATOM     14  O   UNL     1      -8.984  11.073  17.828  0.00  0.00    +0.000 OA
BRANCH  14  16
ATOM     15  O   UNL     1      -7.609   9.335  17.174  0.00  0.00    +0.000 OA
ATOM     16  C   UNL     1      -8.607  10.029  17.029  0.00  0.00    +0.000 C 
BRANCH  16  17
ATOM     17  C   UNL     1      -9.604   9.843  15.924  0.00  0.00    +0.000 C 
ATOM     18  H   UNL     1      -9.249  10.341  15.018  0.00  0.00    +0.000 HD
ATOM     19  H   UNL     1     -10.574  10.244  16.230  0.00  0.00    +0.000 HD
ATOM     20  H   UNL     1      -9.717   8.776  15.714  0.00  0.00    +0.000 HD
ENDBRANCH  16  17
ENDBRANCH  14  16
ENDBRANCH  11  14
ENDBRANCH   1  11
TORSDOF 6
ENDMDL
