MODEL 1
REMARK VINA RESULT:    -5.632      0.000      0.000
REMARK INTER + INTRA:          -8.147
REMARK INTER:                  -7.489
REMARK INTRA:                  -0.658
REMARK UNBOUND:                -0.539
REMARK  Name = 24433
REMARK  7 active torsions:
REMARK  status: ('A' for Active; 'I' for Inactive)
REMARK    1  A    between atoms: O_1  and  C_6
REMARK    2  A    between atoms: O_1  and  C_9
REMARK    3  A    between atoms: N_3  and  C_10
REMARK    4  A    between atoms: C_4  and  C_5
REMARK    5  A    between atoms: C_4  and  C_6
REMARK    6  A    between atoms: C_5  and  C_7
REMARK    7  A    between atoms: C_8  and  C_9
REMARK                            x       y       z     vdW  Elec       q    Type
REMARK                         _______ _______ _______ _____ _____    ______ ____
ROOT
ATOM      1  O   UNL     1       3.640   8.633   0.518  0.00  0.00    +0.000 OA
ATOM      2  C   UNL     1       4.692   8.982   1.032  0.00  0.00    +0.000 C 
ENDROOT
BRANCH   2   3
ATOM      3  C   UNL     1       5.844   9.503   0.255  0.00  0.00    +0.000 A 
ATOM      4  C   UNL     1       5.700  10.621  -0.543  0.00  0.00    +0.000 A 
ATOM      5  C   UNL     1       7.047   8.832   0.364  0.00  0.00    +0.000 A 
ATOM      6  C   UNL     1       6.802  11.087  -1.261  0.00  0.00    +0.000 A 
ATOM      7  C   UNL     1       8.149   9.298  -0.354  0.00  0.00    +0.000 A 
ATOM      8  C   UNL     1       8.026  10.425  -1.166  0.00  0.00    +0.000 A 
ATOM      9  H   UNL     1       7.178   7.962   1.000  0.00  0.00    +0.000 HD
ATOM     10  H   UNL     1       6.720  11.965  -1.897  0.00  0.00    +0.000 HD
ATOM     11  H   UNL     1       9.103   8.786  -0.278  0.00  0.00    +0.000 HD
ATOM     12  H   UNL     1       8.883  10.789  -1.724  0.00  0.00    +0.000 HD
BRANCH   4  13
ATOM     13  N   UNL     1       4.469  11.306  -0.652  0.00  0.00    +0.000 N 
ATOM     14  H   UNL     1       3.641  10.834  -0.986  0.00  0.00    +0.000 HD
ATOM     15  H   UNL     1       4.417  12.286  -0.408  0.00  0.00    +0.000 HD
ENDBRANCH   4  13
ENDBRANCH   2   3
BRANCH   2  16
ATOM     16  O   UNL     1       4.978   8.954   2.364  0.00  0.00    +0.000 OA
BRANCH  16  17
ATOM     17  C   UNL     1       4.615   7.767   3.056  0.00  0.00    +0.000 C 
ATOM     18  H   UNL     1       3.911   7.190   2.444  0.00  0.00    +0.000 HD
ATOM     19  H   UNL     1       4.134   8.030   4.005  0.00  0.00    +0.000 HD
BRANCH  17  20
ATOM     20  C   UNL     1       5.871   6.948   3.318  0.00  0.00    +0.000 C 
ATOM     21  H   UNL     1       6.670   7.281   2.644  0.00  0.00    +0.000 HD
ATOM     22  H   UNL     1       5.679   5.899   3.059  0.00  0.00    +0.000 HD
BRANCH  20  23
ATOM     23  C   UNL     1       6.324   7.059   4.771  0.00  0.00    +0.000 C 
ATOM     24  H   UNL     1       6.906   6.172   5.048  0.00  0.00    +0.000 HD
ATOM     25  H   UNL     1       5.450   7.092   5.432  0.00  0.00    +0.000 HD
BRANCH  23  26
ATOM     26  C   UNL     1       7.171   8.301   4.997  0.00  0.00    +0.000 C 
ATOM     27  H   UNL     1       6.650   9.199   4.651  0.00  0.00    +0.000 HD
ATOM     28  H   UNL     1       7.408   8.426   6.058  0.00  0.00    +0.000 HD
ATOM     29  H   UNL     1       8.113   8.222   4.444  0.00  0.00    +0.000 HD
ENDBRANCH  23  26
ENDBRANCH  20  23
ENDBRANCH  17  20
ENDBRANCH  16  17
ENDBRANCH   2  16
TORSDOF 7
ENDMDL
MODEL 2
REMARK VINA RESULT:    -5.415     14.151     16.026
REMARK INTER + INTRA:          -7.854
REMARK INTER:                  -6.739
REMARK INTRA:                  -1.114
REMARK UNBOUND:                -0.539
REMARK  Name = 24433
REMARK  7 active torsions:
REMARK  status: ('A' for Active; 'I' for Inactive)
REMARK    1  A    between atoms: O_1  and  C_6
REMARK    2  A    between atoms: O_1  and  C_9
REMARK    3  A    between atoms: N_3  and  C_10
REMARK    4  A    between atoms: C_4  and  C_5
REMARK    5  A    between atoms: C_4  and  C_6
REMARK    6  A    between atoms: C_5  and  C_7
REMARK    7  A    between atoms: C_8  and  C_9
REMARK                            x       y       z     vdW  Elec       q    Type
REMARK                         _______ _______ _______ _____ _____    ______ ____
ROOT
ATOM      1  O   UNL     1      -0.247   7.945 -12.600  0.00  0.00    +0.000 OA
ATOM      2  C   UNL     1      -1.379   7.589 -12.308  0.00  0.00    +0.000 C 
ENDROOT
BRANCH   2   3
ATOM      3  C   UNL     1      -1.993   7.835 -10.980  0.00  0.00    +0.000 A 
ATOM      4  C   UNL     1      -1.839   9.058 -10.355  0.00  0.00    +0.000 A 
ATOM      5  C   UNL     1      -2.713   6.806 -10.405  0.00  0.00    +0.000 A 
ATOM      6  C   UNL     1      -2.428   9.259  -9.106  0.00  0.00    +0.000 A 
ATOM      7  C   UNL     1      -3.302   7.007  -9.156  0.00  0.00    +0.000 A 
ATOM      8  C   UNL     1      -3.160   8.234  -8.508  0.00  0.00    +0.000 A 
ATOM      9  H   UNL     1      -2.855   5.846 -10.892  0.00  0.00    +0.000 HD
ATOM     10  H   UNL     1      -2.325  10.210  -8.590  0.00  0.00    +0.000 HD
ATOM     11  H   UNL     1      -3.875   6.211  -8.691  0.00  0.00    +0.000 HD
ATOM     12  H   UNL     1      -3.619   8.391  -7.536  0.00  0.00    +0.000 HD
BRANCH   4  13
ATOM     13  N   UNL     1      -1.102  10.108 -10.945  0.00  0.00    +0.000 N 
ATOM     14  H   UNL     1      -0.411   9.921 -11.658  0.00  0.00    +0.000 HD
ATOM     15  H   UNL     1      -1.255  11.061 -10.640  0.00  0.00    +0.000 HD
ENDBRANCH   4  13
ENDBRANCH   2   3
BRANCH   2  16
ATOM     16  O   UNL     1      -2.243   6.924 -13.125  0.00  0.00    +0.000 OA
BRANCH  16  17
ATOM     17  C   UNL     1      -3.030   7.730 -13.991  0.00  0.00    +0.000 C 
ATOM     18  H   UNL     1      -2.745   7.533 -15.032  0.00  0.00    +0.000 HD
ATOM     19  H   UNL     1      -2.854   8.789 -13.766  0.00  0.00    +0.000 HD
BRANCH  17  20
ATOM     20  C   UNL     1      -4.498   7.390 -13.780  0.00  0.00    +0.000 C 
ATOM     21  H   UNL     1      -4.586   6.351 -13.437  0.00  0.00    +0.000 HD
ATOM     22  H   UNL     1      -5.021   7.432 -14.743  0.00  0.00    +0.000 HD
BRANCH  20  23
ATOM     23  C   UNL     1      -5.158   8.334 -12.779  0.00  0.00    +0.000 C 
ATOM     24  H   UNL     1      -5.051   7.934 -11.763  0.00  0.00    +0.000 HD
ATOM     25  H   UNL     1      -6.232   8.406 -12.987  0.00  0.00    +0.000 HD
BRANCH  23  26
ATOM     26  C   UNL     1      -4.542   9.722 -12.833  0.00  0.00    +0.000 C 
ATOM     27  H   UNL     1      -4.901  10.343 -12.006  0.00  0.00    +0.000 HD
ATOM     28  H   UNL     1      -3.450   9.671 -12.778  0.00  0.00    +0.000 HD
ATOM     29  H   UNL     1      -4.812  10.219 -13.771  0.00  0.00    +0.000 HD
ENDBRANCH  23  26
ENDBRANCH  20  23
ENDBRANCH  17  20
ENDBRANCH  16  17
ENDBRANCH   2  16
TORSDOF 7
ENDMDL
MODEL 3
REMARK VINA RESULT:    -5.381     28.121     29.256
REMARK INTER + INTRA:          -7.808
REMARK INTER:                  -7.267
REMARK INTRA:                  -0.541
REMARK UNBOUND:                -0.539
REMARK  Name = 24433
REMARK  7 active torsions:
REMARK  status: ('A' for Active; 'I' for Inactive)
REMARK    1  A    between atoms: O_1  and  C_6
REMARK    2  A    between atoms: O_1  and  C_9
REMARK    3  A    between atoms: N_3  and  C_10
REMARK    4  A    between atoms: C_4  and  C_5
REMARK    5  A    between atoms: C_4  and  C_6
REMARK    6  A    between atoms: C_5  and  C_7
REMARK    7  A    between atoms: C_8  and  C_9
REMARK                            x       y       z     vdW  Elec       q    Type
REMARK                         _______ _______ _______ _____ _____    ______ ____
ROOT
ATOM      1  O   UNL     1     -22.228  -4.770   4.047  0.00  0.00    +0.000 OA
ATOM      2  C   UNL     1     -21.082  -4.441   4.315  0.00  0.00    +0.000 C 
ENDROOT
BRANCH   2   3
ATOM      3  C   UNL     1     -19.969  -4.493   3.334  0.00  0.00    +0.000 A 
ATOM      4  C   UNL     1     -18.785  -5.128   3.654  0.00  0.00    +0.000 A 
ATOM      5  C   UNL     1     -20.167  -3.889   2.108  0.00  0.00    +0.000 A 
ATOM      6  C   UNL     1     -17.758  -5.161   2.710  0.00  0.00    +0.000 A 
ATOM      7  C   UNL     1     -19.140  -3.922   1.164  0.00  0.00    +0.000 A 
ATOM      8  C   UNL     1     -17.936  -4.557   1.466  0.00  0.00    +0.000 A 
ATOM      9  H   UNL     1     -21.099  -3.401   1.837  0.00  0.00    +0.000 HD
ATOM     10  H   UNL     1     -16.815  -5.653   2.933  0.00  0.00    +0.000 HD
ATOM     11  H   UNL     1     -19.278  -3.455   0.193  0.00  0.00    +0.000 HD
ATOM     12  H   UNL     1     -17.136  -4.583   0.732  0.00  0.00    +0.000 HD
BRANCH   4  13
ATOM     13  N   UNL     1     -18.586  -5.745   4.909  0.00  0.00    +0.000 N 
ATOM     14  H   UNL     1     -18.234  -5.219   5.696  0.00  0.00    +0.000 HD
ATOM     15  H   UNL     1     -18.783  -6.732   5.020  0.00  0.00    +0.000 HD
ENDBRANCH   4  13
ENDBRANCH   2   3
BRANCH   2  16
ATOM     16  O   UNL     1     -20.643  -3.985   5.522  0.00  0.00    +0.000 OA
BRANCH  16  17
ATOM     17  C   UNL     1     -21.291  -2.824   6.024  0.00  0.00    +0.000 C 
ATOM     18  H   UNL     1     -21.075  -2.723   7.095  0.00  0.00    +0.000 HD
ATOM     19  H   UNL     1     -22.374  -2.919   5.884  0.00  0.00    +0.000 HD
BRANCH  17  20
ATOM     20  C   UNL     1     -20.772  -1.607   5.272  0.00  0.00    +0.000 C 
ATOM     21  H   UNL     1     -21.543  -1.256   4.573  0.00  0.00    +0.000 HD
ATOM     22  H   UNL     1     -19.918  -1.903   4.651  0.00  0.00    +0.000 HD
BRANCH  20  23
ATOM     23  C   UNL     1     -20.370  -0.484   6.223  0.00  0.00    +0.000 C 
ATOM     24  H   UNL     1     -20.760   0.473   5.856  0.00  0.00    +0.000 HD
ATOM     25  H   UNL     1     -19.278  -0.397   6.256  0.00  0.00    +0.000 HD
BRANCH  23  26
ATOM     26  C   UNL     1     -20.896  -0.730   7.628  0.00  0.00    +0.000 C 
ATOM     27  H   UNL     1     -21.085   0.216   8.147  0.00  0.00    +0.000 HD
ATOM     28  H   UNL     1     -21.829  -1.302   7.604  0.00  0.00    +0.000 HD
ATOM     29  H   UNL     1     -20.164  -1.296   8.213  0.00  0.00    +0.000 HD
ENDBRANCH  23  26
ENDBRANCH  20  23
ENDBRANCH  17  20
ENDBRANCH  16  17
ENDBRANCH   2  16
TORSDOF 7
ENDMDL
MODEL 4
REMARK VINA RESULT:    -5.242     14.225     15.985
REMARK INTER + INTRA:          -7.620
REMARK INTER:                  -7.198
REMARK INTRA:                  -0.421
REMARK UNBOUND:                -0.539
REMARK  Name = 24433
REMARK  7 active torsions:
REMARK  status: ('A' for Active; 'I' for Inactive)
REMARK    1  A    between atoms: O_1  and  C_6
REMARK    2  A    between atoms: O_1  and  C_9
REMARK    3  A    between atoms: N_3  and  C_10
REMARK    4  A    between atoms: C_4  and  C_5
REMARK    5  A    between atoms: C_4  and  C_6
REMARK    6  A    between atoms: C_5  and  C_7
REMARK    7  A    between atoms: C_8  and  C_9
REMARK                            x       y       z     vdW  Elec       q    Type
REMARK                         _______ _______ _______ _____ _____    ______ ____
ROOT
ATOM      1  O   UNL     1       0.176   8.781 -13.108  0.00  0.00    +0.000 OA
ATOM      2  C   UNL     1      -0.649   9.445 -12.499  0.00  0.00    +0.000 C 
ENDROOT
BRANCH   2   3
ATOM      3  C   UNL     1      -1.449   8.911 -11.368  0.00  0.00    +0.000 A 
ATOM      4  C   UNL     1      -1.899   7.605 -11.386  0.00  0.00    +0.000 A 
ATOM      5  C   UNL     1      -1.719   9.763 -10.315  0.00  0.00    +0.000 A 
ATOM      6  C   UNL     1      -2.648   7.132 -10.308  0.00  0.00    +0.000 A 
ATOM      7  C   UNL     1      -2.468   9.290  -9.237  0.00  0.00    +0.000 A 
ATOM      8  C   UNL     1      -2.933   7.975  -9.234  0.00  0.00    +0.000 A 
ATOM      9  H   UNL     1      -1.357  10.787 -10.281  0.00  0.00    +0.000 HD
ATOM     10  H   UNL     1      -3.016   6.110 -10.294  0.00  0.00    +0.000 HD
ATOM     11  H   UNL     1      -2.687   9.945  -8.398  0.00  0.00    +0.000 HD
ATOM     12  H   UNL     1      -3.515   7.607  -8.396  0.00  0.00    +0.000 HD
BRANCH   4  13
ATOM     13  N   UNL     1      -1.621   6.736 -12.465  0.00  0.00    +0.000 N 
ATOM     14  H   UNL     1      -0.858   6.924 -13.100  0.00  0.00    +0.000 HD
ATOM     15  H   UNL     1      -2.202   5.922 -12.615  0.00  0.00    +0.000 HD
ENDBRANCH   4  13
ENDBRANCH   2   3
BRANCH   2  16
ATOM     16  O   UNL     1      -0.967  10.746 -12.745  0.00  0.00    +0.000 OA
BRANCH  16  17
ATOM     17  C   UNL     1      -0.646  11.234 -14.041  0.00  0.00    +0.000 C 
ATOM     18  H   UNL     1      -1.567  11.544 -14.551  0.00  0.00    +0.000 HD
ATOM     19  H   UNL     1      -0.164  10.439 -14.622  0.00  0.00    +0.000 HD
BRANCH  17  20
ATOM     20  C   UNL     1       0.296  12.421 -13.899  0.00  0.00    +0.000 C 
ATOM     21  H   UNL     1       0.832  12.348 -12.944  0.00  0.00    +0.000 HD
ATOM     22  H   UNL     1      -0.292  13.345 -13.843  0.00  0.00    +0.000 HD
BRANCH  20  23
ATOM     23  C   UNL     1       1.287  12.495 -15.057  0.00  0.00    +0.000 C 
ATOM     24  H   UNL     1       0.832  13.023 -15.903  0.00  0.00    +0.000 HD
ATOM     25  H   UNL     1       1.533  11.484 -15.402  0.00  0.00    +0.000 HD
BRANCH  23  26
ATOM     26  C   UNL     1       2.565  13.211 -14.652  0.00  0.00    +0.000 C 
ATOM     27  H   UNL     1       2.682  13.219 -13.564  0.00  0.00    +0.000 HD
ATOM     28  H   UNL     1       3.443  12.726 -15.091  0.00  0.00    +0.000 HD
ATOM     29  H   UNL     1       2.542  14.250 -14.997  0.00  0.00    +0.000 HD
ENDBRANCH  23  26
ENDBRANCH  20  23
ENDBRANCH  17  20
ENDBRANCH  16  17
ENDBRANCH   2  16
TORSDOF 7
ENDMDL
MODEL 5
REMARK VINA RESULT:    -5.141     28.814     30.067
REMARK INTER + INTRA:          -7.484
REMARK INTER:                  -6.826
REMARK INTRA:                  -0.658
REMARK UNBOUND:                -0.539
REMARK  Name = 24433
REMARK  7 active torsions:
REMARK  status: ('A' for Active; 'I' for Inactive)
REMARK    1  A    between atoms: O_1  and  C_6
REMARK    2  A    between atoms: O_1  and  C_9
REMARK    3  A    between atoms: N_3  and  C_10
REMARK    4  A    between atoms: C_4  and  C_5
REMARK    5  A    between atoms: C_4  and  C_6
REMARK    6  A    between atoms: C_5  and  C_7
REMARK    7  A    between atoms: C_8  and  C_9
REMARK                            x       y       z     vdW  Elec       q    Type
REMARK                         _______ _______ _______ _____ _____    ______ ____
ROOT
ATOM      1  O   UNL     1     -23.217  -2.910   3.537  0.00  0.00    +0.000 OA
ATOM      2  C   UNL     1     -22.054  -2.906   3.909  0.00  0.00    +0.000 C 
ENDROOT
BRANCH   2   3
ATOM      3  C   UNL     1     -21.593  -2.210   5.137  0.00  0.00    +0.000 A 
ATOM      4  C   UNL     1     -22.009  -2.641   6.381  0.00  0.00    +0.000 A 
ATOM      5  C   UNL     1     -20.746  -1.130   4.982  0.00  0.00    +0.000 A 
ATOM      6  C   UNL     1     -21.559  -1.967   7.517  0.00  0.00    +0.000 A 
ATOM      7  C   UNL     1     -20.296  -0.455   6.117  0.00  0.00    +0.000 A 
ATOM      8  C   UNL     1     -20.703  -0.873   7.384  0.00  0.00    +0.000 A 
ATOM      9  H   UNL     1     -20.399  -0.790   4.011  0.00  0.00    +0.000 HD
ATOM     10  H   UNL     1     -21.868  -2.282   8.509  0.00  0.00    +0.000 HD
ATOM     11  H   UNL     1     -19.627   0.394   6.016  0.00  0.00    +0.000 HD
ATOM     12  H   UNL     1     -20.353  -0.349   8.268  0.00  0.00    +0.000 HD
BRANCH   4  13
ATOM     13  N   UNL     1     -22.875  -3.746   6.536  0.00  0.00    +0.000 N 
ATOM     14  H   UNL     1     -23.652  -3.711   7.181  0.00  0.00    +0.000 HD
ATOM     15  H   UNL     1     -22.708  -4.592   6.006  0.00  0.00    +0.000 HD
ENDBRANCH   4  13
ENDBRANCH   2   3
BRANCH   2  16
ATOM     16  O   UNL     1     -21.012  -3.518   3.280  0.00  0.00    +0.000 OA
BRANCH  16  17
ATOM     17  C   UNL     1     -21.100  -4.931   3.156  0.00  0.00    +0.000 C 
ATOM     18  H   UNL     1     -21.164  -5.199   2.094  0.00  0.00    +0.000 HD
ATOM     19  H   UNL     1     -22.000  -5.288   3.670  0.00  0.00    +0.000 HD
BRANCH  17  20
ATOM     20  C   UNL     1     -19.860  -5.558   3.778  0.00  0.00    +0.000 C 
ATOM     21  H   UNL     1     -19.840  -6.630   3.547  0.00  0.00    +0.000 HD
ATOM     22  H   UNL     1     -19.930  -5.488   4.870  0.00  0.00    +0.000 HD
BRANCH  20  23
ATOM     23  C   UNL     1     -18.582  -4.887   3.286  0.00  0.00    +0.000 C 
ATOM     24  H   UNL     1     -17.738  -5.182   3.921  0.00  0.00    +0.000 HD
ATOM     25  H   UNL     1     -18.679  -3.797   3.364  0.00  0.00    +0.000 HD
BRANCH  23  26
ATOM     26  C   UNL     1     -18.275  -5.260   1.845  0.00  0.00    +0.000 C 
ATOM     27  H   UNL     1     -18.511  -4.434   1.167  0.00  0.00    +0.000 HD
ATOM     28  H   UNL     1     -17.218  -5.517   1.722  0.00  0.00    +0.000 HD
ATOM     29  H   UNL     1     -18.873  -6.127   1.543  0.00  0.00    +0.000 HD
ENDBRANCH  23  26
ENDBRANCH  20  23
ENDBRANCH  17  20
ENDBRANCH  16  17
ENDBRANCH   2  16
TORSDOF 7
ENDMDL
MODEL 6
REMARK VINA RESULT:    -5.135     27.878     29.604
REMARK INTER + INTRA:          -7.475
REMARK INTER:                  -6.952
REMARK INTRA:                  -0.523
REMARK UNBOUND:                -0.539
REMARK  Name = 24433
REMARK  7 active torsions:
REMARK  status: ('A' for Active; 'I' for Inactive)
REMARK    1  A    between atoms: O_1  and  C_6
REMARK    2  A    between atoms: O_1  and  C_9
REMARK    3  A    between atoms: N_3  and  C_10
REMARK    4  A    between atoms: C_4  and  C_5
REMARK    5  A    between atoms: C_4  and  C_6
REMARK    6  A    between atoms: C_5  and  C_7
REMARK    7  A    between atoms: C_8  and  C_9
REMARK                            x       y       z     vdW  Elec       q    Type
REMARK                         _______ _______ _______ _____ _____    ______ ____
ROOT
ATOM      1  O   UNL     1     -22.717  -4.380   4.364  0.00  0.00    +0.000 OA
ATOM      2  C   UNL     1     -21.605  -3.891   4.241  0.00  0.00    +0.000 C 
ENDROOT
BRANCH   2   3
ATOM      3  C   UNL     1     -21.156  -2.690   4.990  0.00  0.00    +0.000 A 
ATOM      4  C   UNL     1     -21.037  -1.472   4.350  0.00  0.00    +0.000 A 
ATOM      5  C   UNL     1     -20.868  -2.842   6.332  0.00  0.00    +0.000 A 
ATOM      6  C   UNL     1     -20.613  -0.362   5.081  0.00  0.00    +0.000 A 
ATOM      7  C   UNL     1     -20.444  -1.732   7.063  0.00  0.00    +0.000 A 
ATOM      8  C   UNL     1     -20.316  -0.492   6.437  0.00  0.00    +0.000 A 
ATOM      9  H   UNL     1     -20.973  -3.790   6.851  0.00  0.00    +0.000 HD
ATOM     10  H   UNL     1     -20.509   0.610   4.605  0.00  0.00    +0.000 HD
ATOM     11  H   UNL     1     -20.216  -1.832   8.120  0.00  0.00    +0.000 HD
ATOM     12  H   UNL     1     -19.987   0.372   7.006  0.00  0.00    +0.000 HD
BRANCH   4  13
ATOM     13  N   UNL     1     -21.332  -1.319   2.977  0.00  0.00    +0.000 N 
ATOM     14  H   UNL     1     -21.960  -0.595   2.658  0.00  0.00    +0.000 HD
ATOM     15  H   UNL     1     -20.923  -1.953   2.302  0.00  0.00    +0.000 HD
ENDBRANCH   4  13
ENDBRANCH   2   3
BRANCH   2  16
ATOM     16  O   UNL     1     -20.617  -4.347   3.421  0.00  0.00    +0.000 OA
BRANCH  16  17
ATOM     17  C   UNL     1     -20.954  -5.450   2.590  0.00  0.00    +0.000 C 
ATOM     18  H   UNL     1     -21.715  -5.139   1.864  0.00  0.00    +0.000 HD
ATOM     19  H   UNL     1     -21.356  -6.262   3.206  0.00  0.00    +0.000 HD
BRANCH  17  20
ATOM     20  C   UNL     1     -19.701  -5.918   1.864  0.00  0.00    +0.000 C 
ATOM     21  H   UNL     1     -19.990  -6.473   0.962  0.00  0.00    +0.000 HD
ATOM     22  H   UNL     1     -19.163  -6.635   2.496  0.00  0.00    +0.000 HD
BRANCH  20  23
ATOM     23  C   UNL     1     -18.791  -4.750   1.498  0.00  0.00    +0.000 C 
ATOM     24  H   UNL     1     -19.217  -3.813   1.878  0.00  0.00    +0.000 HD
ATOM     25  H   UNL     1     -18.726  -4.656   0.407  0.00  0.00    +0.000 HD
BRANCH  23  26
ATOM     26  C   UNL     1     -17.395  -4.930   2.070  0.00  0.00    +0.000 C 
ATOM     27  H   UNL     1     -17.231  -5.966   2.386  0.00  0.00    +0.000 HD
ATOM     28  H   UNL     1     -16.631  -4.670   1.331  0.00  0.00    +0.000 HD
ATOM     29  H   UNL     1     -17.257  -4.285   2.944  0.00  0.00    +0.000 HD
ENDBRANCH  23  26
ENDBRANCH  20  23
ENDBRANCH  17  20
ENDBRANCH  16  17
ENDBRANCH   2  16
TORSDOF 7
ENDMDL
MODEL 7
REMARK VINA RESULT:    -5.134     14.560     16.016
REMARK INTER + INTRA:          -7.473
REMARK INTER:                  -6.916
REMARK INTRA:                  -0.558
REMARK UNBOUND:                -0.539
REMARK  Name = 24433
REMARK  7 active torsions:
REMARK  status: ('A' for Active; 'I' for Inactive)
REMARK    1  A    between atoms: O_1  and  C_6
REMARK    2  A    between atoms: O_1  and  C_9
REMARK    3  A    between atoms: N_3  and  C_10
REMARK    4  A    between atoms: C_4  and  C_5
REMARK    5  A    between atoms: C_4  and  C_6
REMARK    6  A    between atoms: C_5  and  C_7
REMARK    7  A    between atoms: C_8  and  C_9
REMARK                            x       y       z     vdW  Elec       q    Type
REMARK                         _______ _______ _______ _____ _____    ______ ____
ROOT
ATOM      1  O   UNL     1      -9.568  11.776   8.974  0.00  0.00    +0.000 OA
ATOM      2  C   UNL     1      -8.832  11.094   8.277  0.00  0.00    +0.000 C 
ENDROOT
BRANCH   2   3
ATOM      3  C   UNL     1      -8.152  11.611   7.062  0.00  0.00    +0.000 A 
ATOM      4  C   UNL     1      -7.420  12.781   7.116  0.00  0.00    +0.000 A 
ATOM      5  C   UNL     1      -8.282  10.883   5.896  0.00  0.00    +0.000 A 
ATOM      6  C   UNL     1      -6.792  13.241   5.958  0.00  0.00    +0.000 A 
ATOM      7  C   UNL     1      -7.655  11.343   4.738  0.00  0.00    +0.000 A 
ATOM      8  C   UNL     1      -6.910  12.522   4.769  0.00  0.00    +0.000 A 
ATOM      9  H   UNL     1      -8.841   9.953   5.843  0.00  0.00    +0.000 HD
ATOM     10  H   UNL     1      -6.209  14.158   5.969  0.00  0.00    +0.000 HD
ATOM     11  H   UNL     1      -7.743  10.781   3.812  0.00  0.00    +0.000 HD
ATOM     12  H   UNL     1      -6.421  12.880   3.868  0.00  0.00    +0.000 HD
BRANCH   4  13
ATOM     13  N   UNL     1      -7.289  13.524   8.310  0.00  0.00    +0.000 N 
ATOM     14  H   UNL     1      -6.887  13.108   9.139  0.00  0.00    +0.000 HD
ATOM     15  H   UNL     1      -7.616  14.481   8.344  0.00  0.00    +0.000 HD
ENDBRANCH   4  13
ENDBRANCH   2   3
BRANCH   2  16
ATOM     16  O   UNL     1      -8.519   9.785   8.487  0.00  0.00    +0.000 OA
BRANCH  16  17
ATOM     17  C   UNL     1      -7.751   9.505   9.649  0.00  0.00    +0.000 C 
ATOM     18  H   UNL     1      -7.681  10.410  10.266  0.00  0.00    +0.000 HD
ATOM     19  H   UNL     1      -6.742   9.193   9.355  0.00  0.00    +0.000 HD
BRANCH  17  20
ATOM     20  C   UNL     1      -8.433   8.392  10.432  0.00  0.00    +0.000 C 
ATOM     21  H   UNL     1      -7.692   7.879  11.057  0.00  0.00    +0.000 HD
ATOM     22  H   UNL     1      -8.809   7.636   9.732  0.00  0.00    +0.000 HD
BRANCH  20  23
ATOM     23  C   UNL     1      -9.573   8.926  11.294  0.00  0.00    +0.000 C 
ATOM     24  H   UNL     1     -10.033   9.794  10.807  0.00  0.00    +0.000 HD
ATOM     25  H   UNL     1      -9.182   9.267  12.260  0.00  0.00    +0.000 HD
BRANCH  23  26
ATOM     26  C   UNL     1     -10.637   7.867  11.530  0.00  0.00    +0.000 C 
ATOM     27  H   UNL     1     -10.240   7.039  12.126  0.00  0.00    +0.000 HD
ATOM     28  H   UNL     1     -11.501   8.287  12.055  0.00  0.00    +0.000 HD
ATOM     29  H   UNL     1     -10.984   7.460  10.575  0.00  0.00    +0.000 HD
ENDBRANCH  23  26
ENDBRANCH  20  23
ENDBRANCH  17  20
ENDBRANCH  16  17
ENDBRANCH   2  16
TORSDOF 7
ENDMDL
MODEL 8
REMARK VINA RESULT:    -5.129     20.334     22.656
REMARK INTER + INTRA:          -7.467
REMARK INTER:                  -6.983
REMARK INTRA:                  -0.484
REMARK UNBOUND:                -0.539
REMARK  Name = 24433
REMARK  7 active torsions:
REMARK  status: ('A' for Active; 'I' for Inactive)
REMARK    1  A    between atoms: O_1  and  C_6
REMARK    2  A    between atoms: O_1  and  C_9
REMARK    3  A    between atoms: N_3  and  C_10
REMARK    4  A    between atoms: C_4  and  C_5
REMARK    5  A    between atoms: C_4  and  C_6
REMARK    6  A    between atoms: C_5  and  C_7
REMARK    7  A    between atoms: C_8  and  C_9
REMARK                            x       y       z     vdW  Elec       q    Type
REMARK                         _______ _______ _______ _____ _____    ______ ____
ROOT
ATOM      1  O   UNL     1      -8.511  10.966  15.936  0.00  0.00    +0.000 OA
ATOM      2  C   UNL     1      -9.560  10.381  16.158  0.00  0.00    +0.000 C 
ENDROOT
BRANCH   2   3
ATOM      3  C   UNL     1      -9.893   9.776  17.472  0.00  0.00    +0.000 A 
ATOM      4  C   UNL     1      -9.048   8.847  18.047  0.00  0.00    +0.000 A 
ATOM      5  C   UNL     1     -11.065  10.176  18.084  0.00  0.00    +0.000 A 
ATOM      6  C   UNL     1      -9.388   8.296  19.283  0.00  0.00    +0.000 A 
ATOM      7  C   UNL     1     -11.404   9.625  19.320  0.00  0.00    +0.000 A 
ATOM      8  C   UNL     1     -10.566   8.685  19.919  0.00  0.00    +0.000 A 
ATOM      9  H   UNL     1     -11.730  10.918  17.651  0.00  0.00    +0.000 HD
ATOM     10  H   UNL     1      -8.743   7.562  19.760  0.00  0.00    +0.000 HD
ATOM     11  H   UNL     1     -12.320   9.931  19.819  0.00  0.00    +0.000 HD
ATOM     12  H   UNL     1     -10.830   8.257  20.881  0.00  0.00    +0.000 HD
BRANCH   4  13
ATOM     13  N   UNL     1      -7.850   8.439  17.418  0.00  0.00    +0.000 N 
ATOM     14  H   UNL     1      -7.415   9.012  16.709  0.00  0.00    +0.000 HD
ATOM     15  H   UNL     1      -7.429   7.554  17.668  0.00  0.00    +0.000 HD
ENDBRANCH   4  13
ENDBRANCH   2   3
BRANCH   2  16
ATOM     16  O   UNL     1     -10.573  10.190  15.267  0.00  0.00    +0.000 OA
BRANCH  16  17
ATOM     17  C   UNL     1     -10.232   9.502  14.071  0.00  0.00    +0.000 C 
ATOM     18  H   UNL     1     -10.338   8.422  14.230  0.00  0.00    +0.000 HD
ATOM     19  H   UNL     1      -9.192   9.725  13.805  0.00  0.00    +0.000 HD
BRANCH  17  20
ATOM     20  C   UNL     1     -11.164   9.959  12.958  0.00  0.00    +0.000 C 
ATOM     21  H   UNL     1     -10.711  10.807  12.429  0.00  0.00    +0.000 HD
ATOM     22  H   UNL     1     -12.092  10.343  13.399  0.00  0.00    +0.000 HD
BRANCH  20  23
ATOM     23  C   UNL     1     -11.471   8.829  11.980  0.00  0.00    +0.000 C 
ATOM     24  H   UNL     1     -11.876   9.243  11.049  0.00  0.00    +0.000 HD
ATOM     25  H   UNL     1     -12.239   8.170  12.402  0.00  0.00    +0.000 HD
BRANCH  23  26
ATOM     26  C   UNL     1     -10.229   8.013  11.664  0.00  0.00    +0.000 C 
ATOM     27  H   UNL     1      -9.841   8.259  10.670  0.00  0.00    +0.000 HD
ATOM     28  H   UNL     1      -9.439   8.200  12.398  0.00  0.00    +0.000 HD
ATOM     29  H   UNL     1     -10.464   6.944  11.680  0.00  0.00    +0.000 HD
ENDBRANCH  23  26
ENDBRANCH  20  23
ENDBRANCH  17  20
ENDBRANCH  16  17
ENDBRANCH   2  16
TORSDOF 7
ENDMDL
MODEL 9
REMARK VINA RESULT:    -4.832     29.185     31.358
REMARK INTER + INTRA:          -7.065
REMARK INTER:                  -6.176
REMARK INTRA:                  -0.890
REMARK UNBOUND:                -0.539
REMARK  Name = 24433
REMARK  7 active torsions:
REMARK  status: ('A' for Active; 'I' for Inactive)
REMARK    1  A    between atoms: O_1  and  C_6
REMARK    2  A    between atoms: O_1  and  C_9
REMARK    3  A    between atoms: N_3  and  C_10
REMARK    4  A    between atoms: C_4  and  C_5
REMARK    5  A    between atoms: C_4  and  C_6
REMARK    6  A    between atoms: C_5  and  C_7
REMARK    7  A    between atoms: C_8  and  C_9
REMARK                            x       y       z     vdW  Elec       q    Type
REMARK                         _______ _______ _______ _____ _____    ______ ____
ROOT
ATOM      1  O   UNL     1      -9.905 -12.349  19.444  0.00  0.00    +0.000 OA
ATOM      2  C   UNL     1     -10.385 -12.430  18.324  0.00  0.00    +0.000 C 
ENDROOT
BRANCH   2   3
ATOM      3  C   UNL     1      -9.707 -11.914  17.108  0.00  0.00    +0.000 A 
ATOM      4  C   UNL     1      -8.436 -12.346  16.780  0.00  0.00    +0.000 A 
ATOM      5  C   UNL     1     -10.390 -10.998  16.333  0.00  0.00    +0.000 A 
ATOM      6  C   UNL     1      -7.825 -11.843  15.632  0.00  0.00    +0.000 A 
ATOM      7  C   UNL     1      -9.779 -10.494  15.184  0.00  0.00    +0.000 A 
ATOM      8  C   UNL     1      -8.497 -10.917  14.834  0.00  0.00    +0.000 A 
ATOM      9  H   UNL     1     -11.395 -10.661  16.570  0.00  0.00    +0.000 HD
ATOM     10  H   UNL     1      -6.827 -12.164  15.348  0.00  0.00    +0.000 HD
ATOM     11  H   UNL     1     -10.303  -9.776  14.560  0.00  0.00    +0.000 HD
ATOM     12  H   UNL     1      -8.021 -10.526  13.940  0.00  0.00    +0.000 HD
BRANCH   4  13
ATOM     13  N   UNL     1      -7.740 -13.283  17.576  0.00  0.00    +0.000 N 
ATOM     14  H   UNL     1      -7.302 -13.005  18.442  0.00  0.00    +0.000 HD
ATOM     15  H   UNL     1      -7.663 -14.244  17.267  0.00  0.00    +0.000 HD
ENDBRANCH   4  13
ENDBRANCH   2   3
BRANCH   2  16
ATOM     16  O   UNL     1     -11.586 -12.989  18.008  0.00  0.00    +0.000 OA
BRANCH  16  17
ATOM     17  C   UNL     1     -12.677 -12.644  18.851  0.00  0.00    +0.000 C 
ATOM     18  H   UNL     1     -12.312 -12.033  19.686  0.00  0.00    +0.000 HD
ATOM     19  H   UNL     1     -13.135 -13.558  19.248  0.00  0.00    +0.000 HD
BRANCH  17  20
ATOM     20  C   UNL     1     -13.698 -11.861  18.038  0.00  0.00    +0.000 C 
ATOM     21  H   UNL     1     -13.419 -10.799  18.030  0.00  0.00    +0.000 HD
ATOM     22  H   UNL     1     -14.673 -11.910  18.539  0.00  0.00    +0.000 HD
BRANCH  20  23
ATOM     23  C   UNL     1     -13.810 -12.390  16.612  0.00  0.00    +0.000 C 
ATOM     24  H   UNL     1     -14.662 -13.076  16.535  0.00  0.00    +0.000 HD
ATOM     25  H   UNL     1     -12.910 -12.962  16.355  0.00  0.00    +0.000 HD
BRANCH  23  26
ATOM     26  C   UNL     1     -13.988 -11.260  15.611  0.00  0.00    +0.000 C 
ATOM     27  H   UNL     1     -14.941 -11.353  15.080  0.00  0.00    +0.000 HD
ATOM     28  H   UNL     1     -13.965 -10.286  16.110  0.00  0.00    +0.000 HD
ATOM     29  H   UNL     1     -13.184 -11.281  14.868  0.00  0.00    +0.000 HD
ENDBRANCH  23  26
ENDBRANCH  20  23
ENDBRANCH  17  20
ENDBRANCH  16  17
ENDBRANCH   2  16
TORSDOF 7
ENDMDL
MODEL 10
REMARK VINA RESULT:    -4.786     14.127     16.106
REMARK INTER + INTRA:          -7.004
REMARK INTER:                  -6.465
REMARK INTRA:                  -0.539
REMARK UNBOUND:                -0.539
REMARK  Name = 24433
REMARK  7 active torsions:
REMARK  status: ('A' for Active; 'I' for Inactive)
REMARK    1  A    between atoms: O_1  and  C_6
REMARK    2  A    between atoms: O_1  and  C_9
REMARK    3  A    between atoms: N_3  and  C_10
REMARK    4  A    between atoms: C_4  and  C_5
REMARK    5  A    between atoms: C_4  and  C_6
REMARK    6  A    between atoms: C_5  and  C_7
REMARK    7  A    between atoms: C_8  and  C_9
REMARK                            x       y       z     vdW  Elec       q    Type
REMARK                         _______ _______ _______ _____ _____    ______ ____
ROOT
ATOM      1  O   UNL     1      -3.251  10.146 -12.988  0.00  0.00    +0.000 OA
ATOM      2  C   UNL     1      -2.516   9.520 -12.241  0.00  0.00    +0.000 C 
ENDROOT
BRANCH   2   3
ATOM      3  C   UNL     1      -3.016   8.600 -11.188  0.00  0.00    +0.000 A 
ATOM      4  C   UNL     1      -2.590   8.736  -9.881  0.00  0.00    +0.000 A 
ATOM      5  C   UNL     1      -3.912   7.620 -11.567  0.00  0.00    +0.000 A 
ATOM      6  C   UNL     1      -3.078   7.857  -8.915  0.00  0.00    +0.000 A 
ATOM      7  C   UNL     1      -4.401   6.740 -10.600  0.00  0.00    +0.000 A 
ATOM      8  C   UNL     1      -3.984   6.859  -9.275  0.00  0.00    +0.000 A 
ATOM      9  H   UNL     1      -4.268   7.512 -12.587  0.00  0.00    +0.000 HD
ATOM     10  H   UNL     1      -2.761   7.939  -7.878  0.00  0.00    +0.000 HD
ATOM     11  H   UNL     1      -5.109   5.965 -10.878  0.00  0.00    +0.000 HD
ATOM     12  H   UNL     1      -4.365   6.175  -8.522  0.00  0.00    +0.000 HD
BRANCH   4  13
ATOM     13  N   UNL     1      -1.673   9.740  -9.497  0.00  0.00    +0.000 N 
ATOM     14  H   UNL     1      -1.017  10.126 -10.162  0.00  0.00    +0.000 HD
ATOM     15  H   UNL     1      -1.661  10.068  -8.540  0.00  0.00    +0.000 HD
ENDBRANCH   4  13
ENDBRANCH   2   3
BRANCH   2  16
ATOM     16  O   UNL     1      -1.154   9.556 -12.244  0.00  0.00    +0.000 OA
BRANCH  16  17
ATOM     17  C   UNL     1      -0.501   8.493 -12.924  0.00  0.00    +0.000 C 
ATOM     18  H   UNL     1      -1.202   7.658 -13.050  0.00  0.00    +0.000 HD
ATOM     19  H   UNL     1       0.358   8.154 -12.334  0.00  0.00    +0.000 HD
BRANCH  17  20
ATOM     20  C   UNL     1      -0.036   8.992 -14.284  0.00  0.00    +0.000 C 
ATOM     21  H   UNL     1      -0.786   8.736 -15.043  0.00  0.00    +0.000 HD
ATOM     22  H   UNL     1       0.877   8.457 -14.573  0.00  0.00    +0.000 HD
BRANCH  20  23
ATOM     23  C   UNL     1       0.215  10.497 -14.277  0.00  0.00    +0.000 C 
ATOM     24  H   UNL     1       0.790  10.775 -13.385  0.00  0.00    +0.000 HD
ATOM     25  H   UNL     1      -0.740  11.034 -14.226  0.00  0.00    +0.000 HD
BRANCH  23  26
ATOM     26  C   UNL     1       0.974  10.942 -15.516  0.00  0.00    +0.000 C 
ATOM     27  H   UNL     1       1.643  11.778 -15.288  0.00  0.00    +0.000 HD
ATOM     28  H   UNL     1       1.573  10.122 -15.925  0.00  0.00    +0.000 HD
ATOM     29  H   UNL     1       0.274  11.271 -16.291  0.00  0.00    +0.000 HD
ENDBRANCH  23  26
ENDBRANCH  20  23
ENDBRANCH  17  20
ENDBRANCH  16  17
ENDBRANCH   2  16
TORSDOF 7
ENDMDL
