MODEL 1
REMARK VINA RESULT:    -3.402      0.000      0.000
REMARK INTER + INTRA:          -4.012
REMARK INTER:                  -3.977
REMARK INTRA:                  -0.035
REMARK UNBOUND:                -0.013
REMARK  Name = 264
REMARK  4 active torsions:
REMARK  status: ('A' for Active; 'I' for Inactive)
REMARK    1  A    between atoms: O_1  and  C_6
REMARK    2  A    between atoms: C_3  and  C_4
REMARK    3  A    between atoms: C_3  and  C_5
REMARK    4  A    between atoms: C_4  and  C_6
REMARK                            x       y       z     vdW  Elec       q    Type
REMARK                         _______ _______ _______ _____ _____    ______ ____
ROOT
ATOM      1  C   UNL     1     -20.757  -3.782   5.720  0.00  0.00    +0.000 C 
ATOM      2  H   UNL     1     -20.533  -4.541   6.480  0.00  0.00    +0.000 HD
ATOM      3  H   UNL     1     -21.826  -3.873   5.493  0.00  0.00    +0.000 HD
ENDROOT
BRANCH   1   4
ATOM      4  C   UNL     1     -20.496  -2.402   6.308  0.00  0.00    +0.000 C 
ATOM      5  H   UNL     1     -20.859  -1.618   5.637  0.00  0.00    +0.000 HD
ATOM      6  H   UNL     1     -19.426  -2.244   6.473  0.00  0.00    +0.000 HD
ATOM      7  H   UNL     1     -21.009  -2.296   7.269  0.00  0.00    +0.000 HD
ENDBRANCH   1   4
BRANCH   1   8
ATOM      8  C   UNL     1     -19.937  -4.053   4.464  0.00  0.00    +0.000 C 
ATOM      9  H   UNL     1     -20.589  -4.049   3.583  0.00  0.00    +0.000 HD
ATOM     10  H   UNL     1     -19.174  -3.276   4.346  0.00  0.00    +0.000 HD
BRANCH   8  12
ATOM     11  O   UNL     1     -19.285  -6.223   3.627  0.00  0.00    +0.000 OA
ATOM     12  C   UNL     1     -19.243  -5.391   4.525  0.00  0.00    +0.000 C 
BRANCH  12  13
ATOM     13  O   UNL     1     -18.542  -5.569   5.672  0.00  0.00    +0.000 OA
ATOM     14  H   UNL     1     -18.063  -6.425   5.680  0.00  0.00    +0.000 HD
ENDBRANCH  12  13
ENDBRANCH   8  12
ENDBRANCH   1   8
TORSDOF 4
ENDMDL
MODEL 2
REMARK VINA RESULT:    -3.384     28.287     28.583
REMARK INTER + INTRA:          -3.990
REMARK INTER:                  -3.936
REMARK INTRA:                  -0.055
REMARK UNBOUND:                -0.013
REMARK  Name = 264
REMARK  4 active torsions:
REMARK  status: ('A' for Active; 'I' for Inactive)
REMARK    1  A    between atoms: O_1  and  C_6
REMARK    2  A    between atoms: C_3  and  C_4
REMARK    3  A    between atoms: C_3  and  C_5
REMARK    4  A    between atoms: C_4  and  C_6
REMARK                            x       y       z     vdW  Elec       q    Type
REMARK                         _______ _______ _______ _____ _____    ______ ____
ROOT
ATOM      1  C   UNL     1       4.551   9.278   1.098  0.00  0.00    +0.000 C 
ATOM      2  H   UNL     1       5.425   9.779   1.532  0.00  0.00    +0.000 HD
ATOM      3  H   UNL     1       4.908   8.326   0.689  0.00  0.00    +0.000 HD
ENDROOT
BRANCH   1   4
ATOM      4  C   UNL     1       3.546   8.990   2.205  0.00  0.00    +0.000 C 
ATOM      5  H   UNL     1       2.524   9.175   1.862  0.00  0.00    +0.000 HD
ATOM      6  H   UNL     1       3.735   9.623   3.078  0.00  0.00    +0.000 HD
ATOM      7  H   UNL     1       3.617   7.944   2.520  0.00  0.00    +0.000 HD
ENDBRANCH   1   4
BRANCH   1   8
ATOM      8  C   UNL     1       3.967  10.134  -0.020  0.00  0.00    +0.000 C 
ATOM      9  H   UNL     1       4.609  10.082  -0.906  0.00  0.00    +0.000 HD
ATOM     10  H   UNL     1       2.969   9.768  -0.282  0.00  0.00    +0.000 HD
BRANCH   8  12
ATOM     11  O   UNL     1       4.804  12.336   0.512  0.00  0.00    +0.000 OA
ATOM     12  C   UNL     1       3.848  11.581   0.387  0.00  0.00    +0.000 C 
BRANCH  12  13
ATOM     13  O   UNL     1       2.563  11.972   0.575  0.00  0.00    +0.000 OA
ATOM     14  H   UNL     1       2.500  12.754   1.165  0.00  0.00    +0.000 HD
ENDBRANCH  12  13
ENDBRANCH   8  12
ENDBRANCH   1   8
TORSDOF 4
ENDMDL
MODEL 3
REMARK VINA RESULT:    -3.383     26.573     26.958
REMARK INTER + INTRA:          -3.989
REMARK INTER:                  -3.930
REMARK INTRA:                  -0.059
REMARK UNBOUND:                -0.013
REMARK  Name = 264
REMARK  4 active torsions:
REMARK  status: ('A' for Active; 'I' for Inactive)
REMARK    1  A    between atoms: O_1  and  C_6
REMARK    2  A    between atoms: C_3  and  C_4
REMARK    3  A    between atoms: C_3  and  C_5
REMARK    4  A    between atoms: C_4  and  C_6
REMARK                            x       y       z     vdW  Elec       q    Type
REMARK                         _______ _______ _______ _____ _____    ______ ____
ROOT
ATOM      1  C   UNL     1      -2.863   8.513  -8.695  0.00  0.00    +0.000 C 
ATOM      2  H   UNL     1      -3.547   8.596  -7.841  0.00  0.00    +0.000 HD
ATOM      3  H   UNL     1      -1.852   8.426  -8.278  0.00  0.00    +0.000 HD
ENDROOT
BRANCH   1   4
ATOM      4  C   UNL     1      -3.186   7.239  -9.463  0.00  0.00    +0.000 C 
ATOM      5  H   UNL     1      -3.351   6.401  -8.778  0.00  0.00    +0.000 HD
ATOM      6  H   UNL     1      -2.367   6.973 -10.139  0.00  0.00    +0.000 HD
ATOM      7  H   UNL     1      -4.092   7.376 -10.062  0.00  0.00    +0.000 HD
ENDBRANCH   1   4
BRANCH   1   8
ATOM      8  C   UNL     1      -2.960   9.764  -9.559  0.00  0.00    +0.000 C 
ATOM      9  H   UNL     1      -3.908   9.768 -10.107  0.00  0.00    +0.000 HD
ATOM     10  H   UNL     1      -2.912  10.655  -8.924  0.00  0.00    +0.000 HD
BRANCH   8  12
ATOM     11  O   UNL     1      -1.986   9.663 -11.767  0.00  0.00    +0.000 OA
ATOM     12  C   UNL     1      -1.838   9.840 -10.564  0.00  0.00    +0.000 C 
BRANCH  12  13
ATOM     13  O   UNL     1      -0.645  10.151 -10.000  0.00  0.00    +0.000 OA
ATOM     14  H   UNL     1      -0.227   9.373  -9.572  0.00  0.00    +0.000 HD
ENDBRANCH  12  13
ENDBRANCH   8  12
ENDBRANCH   1   8
TORSDOF 4
ENDMDL
MODEL 4
REMARK VINA RESULT:    -3.354     29.413     29.731
REMARK INTER + INTRA:          -3.956
REMARK INTER:                  -3.945
REMARK INTRA:                  -0.011
REMARK UNBOUND:                -0.013
REMARK  Name = 264
REMARK  4 active torsions:
REMARK  status: ('A' for Active; 'I' for Inactive)
REMARK    1  A    between atoms: O_1  and  C_6
REMARK    2  A    between atoms: C_3  and  C_4
REMARK    3  A    between atoms: C_3  and  C_5
REMARK    4  A    between atoms: C_4  and  C_6
REMARK                            x       y       z     vdW  Elec       q    Type
REMARK                         _______ _______ _______ _____ _____    ______ ____
ROOT
ATOM      1  C   UNL     1       6.116  11.436  -0.231  0.00  0.00    +0.000 C 
ATOM      2  H   UNL     1       6.576  11.444   0.765  0.00  0.00    +0.000 HD
ATOM      3  H   UNL     1       5.855  12.476  -0.462  0.00  0.00    +0.000 HD
ENDROOT
BRANCH   1   4
ATOM      4  C   UNL     1       7.142  10.952  -1.246  0.00  0.00    +0.000 C 
ATOM      5  H   UNL     1       7.494   9.947  -0.995  0.00  0.00    +0.000 HD
ATOM      6  H   UNL     1       8.008  11.622  -1.276  0.00  0.00    +0.000 HD
ATOM      7  H   UNL     1       6.701  10.920  -2.247  0.00  0.00    +0.000 HD
ENDBRANCH   1   4
BRANCH   1   8
ATOM      8  C   UNL     1       4.856  10.579  -0.211  0.00  0.00    +0.000 C 
ATOM      9  H   UNL     1       4.624  10.230  -1.223  0.00  0.00    +0.000 HD
ATOM     10  H   UNL     1       5.011   9.712   0.439  0.00  0.00    +0.000 HD
BRANCH   8  12
ATOM     11  O   UNL     1       3.228  11.248   1.443  0.00  0.00    +0.000 OA
ATOM     12  C   UNL     1       3.664  11.347   0.302  0.00  0.00    +0.000 C 
BRANCH  12  13
ATOM     13  O   UNL     1       3.136  12.184  -0.625  0.00  0.00    +0.000 OA
ATOM     14  H   UNL     1       2.772  12.999  -0.219  0.00  0.00    +0.000 HD
ENDBRANCH  12  13
ENDBRANCH   8  12
ENDBRANCH   1   8
TORSDOF 4
ENDMDL
MODEL 5
REMARK VINA RESULT:    -3.290     25.991     26.425
REMARK INTER + INTRA:          -3.880
REMARK INTER:                  -3.859
REMARK INTRA:                  -0.021
REMARK UNBOUND:                -0.013
REMARK  Name = 264
REMARK  4 active torsions:
REMARK  status: ('A' for Active; 'I' for Inactive)
REMARK    1  A    between atoms: O_1  and  C_6
REMARK    2  A    between atoms: C_3  and  C_4
REMARK    3  A    between atoms: C_3  and  C_5
REMARK    4  A    between atoms: C_4  and  C_6
REMARK                            x       y       z     vdW  Elec       q    Type
REMARK                         _______ _______ _______ _____ _____    ______ ____
ROOT
ATOM      1  C   UNL     1      -3.060   7.551 -10.961  0.00  0.00    +0.000 C 
ATOM      2  H   UNL     1      -3.179   8.509 -11.482  0.00  0.00    +0.000 HD
ATOM      3  H   UNL     1      -3.967   6.970 -11.165  0.00  0.00    +0.000 HD
ENDROOT
BRANCH   1   4
ATOM      4  C   UNL     1      -1.864   6.815 -11.548  0.00  0.00    +0.000 C 
ATOM      5  H   UNL     1      -0.943   7.086 -11.023  0.00  0.00    +0.000 HD
ATOM      6  H   UNL     1      -1.739   7.057 -12.608  0.00  0.00    +0.000 HD
ATOM      7  H   UNL     1      -2.003   5.733 -11.459  0.00  0.00    +0.000 HD
ENDBRANCH   1   4
BRANCH   1   8
ATOM      8  C   UNL     1      -2.927   7.792  -9.462  0.00  0.00    +0.000 C 
ATOM      9  H   UNL     1      -3.895   7.645  -8.971  0.00  0.00    +0.000 HD
ATOM     10  H   UNL     1      -2.202   7.089  -9.038  0.00  0.00    +0.000 HD
BRANCH   8  12
ATOM     11  O   UNL     1      -1.479   9.713  -9.683  0.00  0.00    +0.000 OA
ATOM     12  C   UNL     1      -2.457   9.193  -9.160  0.00  0.00    +0.000 C 
BRANCH  12  13
ATOM     13  O   UNL     1      -3.248   9.833  -8.263  0.00  0.00    +0.000 OA
ATOM     14  H   UNL     1      -2.735  10.444  -7.692  0.00  0.00    +0.000 HD
ENDBRANCH  12  13
ENDBRANCH   8  12
ENDBRANCH   1   8
TORSDOF 4
ENDMDL
MODEL 6
REMARK VINA RESULT:    -3.271     25.427     25.828
REMARK INTER + INTRA:          -3.858
REMARK INTER:                  -3.791
REMARK INTRA:                  -0.067
REMARK UNBOUND:                -0.013
REMARK  Name = 264
REMARK  4 active torsions:
REMARK  status: ('A' for Active; 'I' for Inactive)
REMARK    1  A    between atoms: O_1  and  C_6
REMARK    2  A    between atoms: C_3  and  C_4
REMARK    3  A    between atoms: C_3  and  C_5
REMARK    4  A    between atoms: C_4  and  C_6
REMARK                            x       y       z     vdW  Elec       q    Type
REMARK                         _______ _______ _______ _____ _____    ______ ____
ROOT
ATOM      1  C   UNL     1      -2.441   8.943  -9.135  0.00  0.00    +0.000 C 
ATOM      2  H   UNL     1      -1.376   8.749  -9.312  0.00  0.00    +0.000 HD
ATOM      3  H   UNL     1      -2.512   9.416  -8.148  0.00  0.00    +0.000 HD
ENDROOT
BRANCH   1   4
ATOM      4  C   UNL     1      -2.947   9.924 -10.184  0.00  0.00    +0.000 C 
ATOM      5  H   UNL     1      -3.795   9.504 -10.733  0.00  0.00    +0.000 HD
ATOM      6  H   UNL     1      -2.158  10.167 -10.903  0.00  0.00    +0.000 HD
ATOM      7  H   UNL     1      -3.273  10.854  -9.709  0.00  0.00    +0.000 HD
ENDBRANCH   1   4
BRANCH   1   8
ATOM      8  C   UNL     1      -3.213   7.629  -9.135  0.00  0.00    +0.000 C 
ATOM      9  H   UNL     1      -2.798   6.951  -8.382  0.00  0.00    +0.000 HD
ATOM     10  H   UNL     1      -4.266   7.820  -8.902  0.00  0.00    +0.000 HD
BRANCH   8  12
ATOM     11  O   UNL     1      -4.122   6.707 -11.174  0.00  0.00    +0.000 OA
ATOM     12  C   UNL     1      -3.143   6.939 -10.474  0.00  0.00    +0.000 C 
BRANCH  12  13
ATOM     13  O   UNL     1      -1.876   6.623 -10.840  0.00  0.00    +0.000 OA
ATOM     14  H   UNL     1      -1.231   6.810 -10.125  0.00  0.00    +0.000 HD
ENDBRANCH  12  13
ENDBRANCH   8  12
ENDBRANCH   1   8
TORSDOF 4
ENDMDL
MODEL 7
REMARK VINA RESULT:    -3.211     15.255     16.043
REMARK INTER + INTRA:          -3.787
REMARK INTER:                  -3.778
REMARK INTRA:                  -0.009
REMARK UNBOUND:                -0.013
REMARK  Name = 264
REMARK  4 active torsions:
REMARK  status: ('A' for Active; 'I' for Inactive)
REMARK    1  A    between atoms: O_1  and  C_6
REMARK    2  A    between atoms: C_3  and  C_4
REMARK    3  A    between atoms: C_3  and  C_5
REMARK    4  A    between atoms: C_4  and  C_6
REMARK                            x       y       z     vdW  Elec       q    Type
REMARK                         _______ _______ _______ _____ _____    ______ ____
ROOT
ATOM      1  C   UNL     1      -9.149 -12.057  15.724  0.00  0.00    +0.000 C 
ATOM      2  H   UNL     1      -9.310 -12.654  14.818  0.00  0.00    +0.000 HD
ATOM      3  H   UNL     1      -9.652 -12.588  16.541  0.00  0.00    +0.000 HD
ENDROOT
BRANCH   1   4
ATOM      4  C   UNL     1      -7.657 -12.003  16.021  0.00  0.00    +0.000 C 
ATOM      5  H   UNL     1      -7.258 -11.002  15.831  0.00  0.00    +0.000 HD
ATOM      6  H   UNL     1      -7.109 -12.715  15.396  0.00  0.00    +0.000 HD
ATOM      7  H   UNL     1      -7.469 -12.253  17.069  0.00  0.00    +0.000 HD
ENDBRANCH   1   4
BRANCH   1   8
ATOM      8  C   UNL     1      -9.766 -10.675  15.549  0.00  0.00    +0.000 C 
ATOM      9  H   UNL     1     -10.845 -10.765  15.380  0.00  0.00    +0.000 HD
ATOM     10  H   UNL     1      -9.596 -10.078  16.451  0.00  0.00    +0.000 HD
BRANCH   8  12
ATOM     11  O   UNL     1      -8.911 -10.465  13.300  0.00  0.00    +0.000 OA
ATOM     12  C   UNL     1      -9.169  -9.939  14.376  0.00  0.00    +0.000 C 
BRANCH  12  13
ATOM     13  O   UNL     1      -8.970  -8.621  14.625  0.00  0.00    +0.000 OA
ATOM     14  H   UNL     1      -8.120  -8.302  14.254  0.00  0.00    +0.000 HD
ENDBRANCH  12  13
ENDBRANCH   8  12
ENDBRANCH   1   8
TORSDOF 4
ENDMDL
MODEL 8
REMARK VINA RESULT:    -3.198     15.637     16.305
REMARK INTER + INTRA:          -3.772
REMARK INTER:                  -3.714
REMARK INTRA:                  -0.058
REMARK UNBOUND:                -0.013
REMARK  Name = 264
REMARK  4 active torsions:
REMARK  status: ('A' for Active; 'I' for Inactive)
REMARK    1  A    between atoms: O_1  and  C_6
REMARK    2  A    between atoms: C_3  and  C_4
REMARK    3  A    between atoms: C_3  and  C_5
REMARK    4  A    between atoms: C_4  and  C_6
REMARK                            x       y       z     vdW  Elec       q    Type
REMARK                         _______ _______ _______ _____ _____    ______ ____
ROOT
ATOM      1  C   UNL     1     -10.361 -11.342  16.623  0.00  0.00    +0.000 C 
ATOM      2  H   UNL     1      -9.811 -10.953  17.489  0.00  0.00    +0.000 HD
ATOM      3  H   UNL     1     -11.116 -12.032  17.018  0.00  0.00    +0.000 HD
ENDROOT
BRANCH   1   4
ATOM      4  C   UNL     1     -11.069 -10.188  15.928  0.00  0.00    +0.000 C 
ATOM      5  H   UNL     1     -11.376 -10.471  14.916  0.00  0.00    +0.000 HD
ATOM      6  H   UNL     1     -10.414  -9.314  15.857  0.00  0.00    +0.000 HD
ATOM      7  H   UNL     1     -11.964  -9.898  16.488  0.00  0.00    +0.000 HD
ENDBRANCH   1   4
BRANCH   1   8
ATOM      8  C   UNL     1      -9.409 -12.092  15.700  0.00  0.00    +0.000 C 
ATOM      9  H   UNL     1      -8.894 -12.884  16.255  0.00  0.00    +0.000 HD
ATOM     10  H   UNL     1      -9.972 -12.543  14.876  0.00  0.00    +0.000 HD
BRANCH   8  12
ATOM     11  O   UNL     1      -8.216 -10.993  13.910  0.00  0.00    +0.000 OA
ATOM     12  C   UNL     1      -8.363 -11.178  15.112  0.00  0.00    +0.000 C 
BRANCH  12  13
ATOM     13  O   UNL     1      -7.613 -10.558  16.057  0.00  0.00    +0.000 OA
ATOM     14  H   UNL     1      -7.421  -9.626  15.819  0.00  0.00    +0.000 HD
ENDBRANCH  12  13
ENDBRANCH   8  12
ENDBRANCH   1   8
TORSDOF 4
ENDMDL
MODEL 9
REMARK VINA RESULT:    -3.170     18.102     18.549
REMARK INTER + INTRA:          -3.739
REMARK INTER:                  -3.680
REMARK INTRA:                  -0.058
REMARK UNBOUND:                -0.013
REMARK  Name = 264
REMARK  4 active torsions:
REMARK  status: ('A' for Active; 'I' for Inactive)
REMARK    1  A    between atoms: O_1  and  C_6
REMARK    2  A    between atoms: C_3  and  C_4
REMARK    3  A    between atoms: C_3  and  C_5
REMARK    4  A    between atoms: C_4  and  C_6
REMARK                            x       y       z     vdW  Elec       q    Type
REMARK                         _______ _______ _______ _____ _____    ______ ____
ROOT
ATOM      1  C   UNL     1      -8.662   3.704  -6.302  0.00  0.00    +0.000 C 
ATOM      2  H   UNL     1      -9.658   4.015  -6.641  0.00  0.00    +0.000 HD
ATOM      3  H   UNL     1      -8.688   2.611  -6.219  0.00  0.00    +0.000 HD
ENDROOT
BRANCH   1   4
ATOM      4  C   UNL     1      -7.637   4.091  -7.359  0.00  0.00    +0.000 C 
ATOM      5  H   UNL     1      -8.124   4.557  -8.221  0.00  0.00    +0.000 HD
ATOM      6  H   UNL     1      -7.087   3.212  -7.710  0.00  0.00    +0.000 HD
ATOM      7  H   UNL     1      -6.916   4.802  -6.947  0.00  0.00    +0.000 HD
ENDBRANCH   1   4
BRANCH   1   8
ATOM      8  C   UNL     1      -8.365   4.318  -4.939  0.00  0.00    +0.000 C 
ATOM      9  H   UNL     1      -9.030   3.891  -4.182  0.00  0.00    +0.000 HD
ATOM     10  H   UNL     1      -7.326   4.111  -4.660  0.00  0.00    +0.000 HD
BRANCH   8  12
ATOM     11  O   UNL     1      -9.530   6.373  -5.446  0.00  0.00    +0.000 OA
ATOM     12  C   UNL     1      -8.562   5.814  -4.944  0.00  0.00    +0.000 C 
BRANCH  12  13
ATOM     13  O   UNL     1      -7.566   6.480  -4.310  0.00  0.00    +0.000 OA
ATOM     14  H   UNL     1      -7.885   7.310  -3.896  0.00  0.00    +0.000 HD
ENDBRANCH  12  13
ENDBRANCH   8  12
ENDBRANCH   1   8
TORSDOF 4
ENDMDL
MODEL 10
REMARK VINA RESULT:    -3.044     36.498     36.893
REMARK INTER + INTRA:          -3.591
REMARK INTER:                  -3.578
REMARK INTRA:                  -0.013
REMARK UNBOUND:                -0.013
REMARK  Name = 264
REMARK  4 active torsions:
REMARK  status: ('A' for Active; 'I' for Inactive)
REMARK    1  A    between atoms: O_1  and  C_6
REMARK    2  A    between atoms: C_3  and  C_4
REMARK    3  A    between atoms: C_3  and  C_5
REMARK    4  A    between atoms: C_4  and  C_6
REMARK                            x       y       z     vdW  Elec       q    Type
REMARK                         _______ _______ _______ _____ _____    ______ ____
ROOT
ATOM      1  C   UNL     1      14.759   6.171  -0.213  0.00  0.00    +0.000 C 
ATOM      2  H   UNL     1      15.010   5.370   0.493  0.00  0.00    +0.000 HD
ATOM      3  H   UNL     1      13.717   6.009  -0.512  0.00  0.00    +0.000 HD
ENDROOT
BRANCH   1   4
ATOM      4  C   UNL     1      14.860   7.510   0.504  0.00  0.00    +0.000 C 
ATOM      5  H   UNL     1      13.976   8.125   0.308  0.00  0.00    +0.000 HD
ATOM      6  H   UNL     1      15.744   8.064   0.174  0.00  0.00    +0.000 HD
ATOM      7  H   UNL     1      14.937   7.357   1.585  0.00  0.00    +0.000 HD
ENDBRANCH   1   4
BRANCH   1   8
ATOM      8  C   UNL     1      15.667   6.086  -1.434  0.00  0.00    +0.000 C 
ATOM      9  H   UNL     1      15.572   6.997  -2.036  0.00  0.00    +0.000 HD
ATOM     10  H   UNL     1      16.708   5.978  -1.113  0.00  0.00    +0.000 HD
BRANCH   8  12
ATOM     11  O   UNL     1      16.143   4.110  -2.739  0.00  0.00    +0.000 OA
ATOM     12  C   UNL     1      15.319   4.909  -2.310  0.00  0.00    +0.000 C 
BRANCH  12  13
ATOM     13  O   UNL     1      13.989   4.809  -2.556  0.00  0.00    +0.000 OA
ATOM     14  H   UNL     1      13.668   5.529  -3.140  0.00  0.00    +0.000 HD
ENDBRANCH  12  13
ENDBRANCH   8  12
ENDBRANCH   1   8
TORSDOF 4
ENDMDL
