MODEL 1
REMARK VINA RESULT:    -4.915      0.000      0.000
REMARK INTER + INTRA:          -5.346
REMARK INTER:                  -5.346
REMARK INTRA:                   0.000
REMARK UNBOUND:                 0.000
REMARK  Name = 2537
REMARK  3 active torsions:
REMARK  status: ('A' for Active; 'I' for Inactive)
REMARK    1  A    between atoms: C_2  and  C_9
REMARK    2  A    between atoms: C_2  and  C_10
REMARK    3  A    between atoms: C_3  and  C_11
REMARK                            x       y       z     vdW  Elec       q    Type
REMARK                         _______ _______ _______ _____ _____    ______ ____
ROOT
ATOM      1  O   UNL     1      -2.788   8.356  -8.854  0.00  0.00    +0.000 OA
ATOM      2  C   UNL     1      -2.867   8.928 -12.302  0.00  0.00    +0.000 C 
ATOM      3  C   UNL     1      -2.843   7.788 -11.246  0.00  0.00    +0.000 C 
ATOM      4  C   UNL     1      -1.432   9.394 -11.931  0.00  0.00    +0.000 C 
ATOM      5  C   UNL     1      -1.560   6.996 -11.585  0.00  0.00    +0.000 C 
ATOM      6  C   UNL     1      -0.596   8.097 -12.079  0.00  0.00    +0.000 C 
ATOM      7  C   UNL     1      -1.515   9.715 -10.418  0.00  0.00    +0.000 C 
ATOM      8  C   UNL     1      -2.442   8.589 -10.003  0.00  0.00    +0.000 C 
ATOM      9  H   UNL     1      -1.040  10.226 -12.521  0.00  0.00    +0.000 HD
ATOM     10  H   UNL     1      -1.729   6.247 -12.366  0.00  0.00    +0.000 HD
ATOM     11  H   UNL     1      -1.146   6.479 -10.712  0.00  0.00    +0.000 HD
ATOM     12  H   UNL     1       0.326   8.124 -11.488  0.00  0.00    +0.000 HD
ATOM     13  H   UNL     1      -0.309   7.923 -13.122  0.00  0.00    +0.000 HD
ATOM     14  H   UNL     1      -1.979  10.684 -10.223  0.00  0.00    +0.000 HD
ATOM     15  H   UNL     1      -0.549   9.636  -9.914  0.00  0.00    +0.000 HD
ENDROOT
BRANCH   2  16
ATOM     16  C   UNL     1      -3.010   8.458 -13.763  0.00  0.00    +0.000 C 
ATOM     17  H   UNL     1      -3.974   8.003 -13.997  0.00  0.00    +0.000 HD
ATOM     18  H   UNL     1      -2.240   7.716 -14.000  0.00  0.00    +0.000 HD
ATOM     19  H   UNL     1      -2.886   9.299 -14.454  0.00  0.00    +0.000 HD
ENDBRANCH   2  16
BRANCH   2  20
ATOM     20  C   UNL     1      -3.961   9.993 -12.075  0.00  0.00    +0.000 C 
ATOM     21  H   UNL     1      -4.916   9.653 -12.492  0.00  0.00    +0.000 HD
ATOM     22  H   UNL     1      -3.737  10.964 -12.524  0.00  0.00    +0.000 HD
ATOM     23  H   UNL     1      -4.109  10.174 -11.004  0.00  0.00    +0.000 HD
ENDBRANCH   2  20
BRANCH   3  24
ATOM     24  C   UNL     1      -4.088   6.951 -11.081  0.00  0.00    +0.000 C 
ATOM     25  H   UNL     1      -4.083   6.411 -10.129  0.00  0.00    +0.000 HD
ATOM     26  H   UNL     1      -4.986   7.579 -11.105  0.00  0.00    +0.000 HD
ATOM     27  H   UNL     1      -4.187   6.218 -11.889  0.00  0.00    +0.000 HD
ENDBRANCH   3  24
TORSDOF 3
ENDMDL
MODEL 2
REMARK VINA RESULT:    -4.705      7.952      9.611
REMARK INTER + INTRA:          -5.117
REMARK INTER:                  -5.117
REMARK INTRA:                   0.000
REMARK UNBOUND:                 0.000
REMARK  Name = 2537
REMARK  3 active torsions:
REMARK  status: ('A' for Active; 'I' for Inactive)
REMARK    1  A    between atoms: C_2  and  C_9
REMARK    2  A    between atoms: C_2  and  C_10
REMARK    3  A    between atoms: C_3  and  C_11
REMARK                            x       y       z     vdW  Elec       q    Type
REMARK                         _______ _______ _______ _____ _____    ______ ____
ROOT
ATOM      1  O   UNL     1      -6.833   4.446  -7.744  0.00  0.00    +0.000 OA
ATOM      2  C   UNL     1     -10.014   4.839  -6.346  0.00  0.00    +0.000 C 
ATOM      3  C   UNL     1      -8.529   5.255  -6.157  0.00  0.00    +0.000 C 
ATOM      4  C   UNL     1      -9.706   3.349  -6.034  0.00  0.00    +0.000 C 
ATOM      5  C   UNL     1      -8.170   4.721  -4.752  0.00  0.00    +0.000 C 
ATOM      6  C   UNL     1      -8.999   3.420  -4.656  0.00  0.00    +0.000 C 
ATOM      7  C   UNL     1      -8.634   2.953  -7.079  0.00  0.00    +0.000 C 
ATOM      8  C   UNL     1      -7.851   4.252  -7.097  0.00  0.00    +0.000 C 
ATOM      9  H   UNL     1     -10.570   2.679  -6.037  0.00  0.00    +0.000 HD
ATOM     10  H   UNL     1      -8.451   5.420  -3.957  0.00  0.00    +0.000 HD
ATOM     11  H   UNL     1      -7.100   4.509  -4.647  0.00  0.00    +0.000 HD
ATOM     12  H   UNL     1      -8.363   2.548  -4.466  0.00  0.00    +0.000 HD
ATOM     13  H   UNL     1      -9.723   3.481  -3.838  0.00  0.00    +0.000 HD
ATOM     14  H   UNL     1      -9.065   2.754  -8.062  0.00  0.00    +0.000 HD
ATOM     15  H   UNL     1      -8.008   2.121  -6.751  0.00  0.00    +0.000 HD
ENDROOT
BRANCH   2  16
ATOM     16  C   UNL     1     -11.002   5.490  -5.359  0.00  0.00    +0.000 C 
ATOM     17  H   UNL     1     -10.532   5.949  -4.487  0.00  0.00    +0.000 HD
ATOM     18  H   UNL     1     -11.712   4.744  -4.985  0.00  0.00    +0.000 HD
ATOM     19  H   UNL     1     -11.579   6.280  -5.853  0.00  0.00    +0.000 HD
ENDBRANCH   2  16
BRANCH   2  20
ATOM     20  C   UNL     1     -10.577   5.090  -7.761  0.00  0.00    +0.000 C 
ATOM     21  H   UNL     1     -11.178   6.006  -7.775  0.00  0.00    +0.000 HD
ATOM     22  H   UNL     1     -11.208   4.281  -8.139  0.00  0.00    +0.000 HD
ATOM     23  H   UNL     1      -9.764   5.212  -8.486  0.00  0.00    +0.000 HD
ENDBRANCH   2  20
BRANCH   3  24
ATOM     24  C   UNL     1      -8.162   6.698  -6.406  0.00  0.00    +0.000 C 
ATOM     25  H   UNL     1      -8.484   7.026  -7.400  0.00  0.00    +0.000 HD
ATOM     26  H   UNL     1      -8.636   7.354  -5.668  0.00  0.00    +0.000 HD
ATOM     27  H   UNL     1      -7.081   6.855  -6.329  0.00  0.00    +0.000 HD
ENDBRANCH   3  24
TORSDOF 3
ENDMDL
MODEL 3
REMARK VINA RESULT:    -4.682      1.969      3.055
REMARK INTER + INTRA:          -5.092
REMARK INTER:                  -5.092
REMARK INTRA:                   0.000
REMARK UNBOUND:                 0.000
REMARK  Name = 2537
REMARK  3 active torsions:
REMARK  status: ('A' for Active; 'I' for Inactive)
REMARK    1  A    between atoms: C_2  and  C_9
REMARK    2  A    between atoms: C_2  and  C_10
REMARK    3  A    between atoms: C_3  and  C_11
REMARK                            x       y       z     vdW  Elec       q    Type
REMARK                         _______ _______ _______ _____ _____    ______ ____
ROOT
ATOM      1  O   UNL     1      -2.429  10.372 -13.831  0.00  0.00    +0.000 OA
ATOM      2  C   UNL     1      -2.183   7.815 -11.460  0.00  0.00    +0.000 C 
ATOM      3  C   UNL     1      -3.094   8.990 -11.909  0.00  0.00    +0.000 C 
ATOM      4  C   UNL     1      -1.046   8.776 -11.017  0.00  0.00    +0.000 C 
ATOM      5  C   UNL     1      -3.166   9.900 -10.661  0.00  0.00    +0.000 C 
ATOM      6  C   UNL     1      -1.765   9.735 -10.033  0.00  0.00    +0.000 C 
ATOM      7  C   UNL     1      -0.717   9.591 -12.292  0.00  0.00    +0.000 C 
ATOM      8  C   UNL     1      -2.126   9.738 -12.832  0.00  0.00    +0.000 C 
ATOM      9  H   UNL     1      -0.167   8.295 -10.581  0.00  0.00    +0.000 HD
ATOM     10  H   UNL     1      -3.946   9.583  -9.961  0.00  0.00    +0.000 HD
ATOM     11  H   UNL     1      -3.356  10.948 -10.920  0.00  0.00    +0.000 HD
ATOM     12  H   UNL     1      -1.249  10.696  -9.934  0.00  0.00    +0.000 HD
ATOM     13  H   UNL     1      -1.837   9.299  -9.031  0.00  0.00    +0.000 HD
ATOM     14  H   UNL     1      -0.095   9.032 -12.995  0.00  0.00    +0.000 HD
ATOM     15  H   UNL     1      -0.276  10.565 -12.071  0.00  0.00    +0.000 HD
ENDROOT
BRANCH   2  16
ATOM     16  C   UNL     1      -2.750   6.952 -10.316  0.00  0.00    +0.000 C 
ATOM     17  H   UNL     1      -3.719   6.497 -10.533  0.00  0.00    +0.000 HD
ATOM     18  H   UNL     1      -2.876   7.557  -9.411  0.00  0.00    +0.000 HD
ATOM     19  H   UNL     1      -2.066   6.131 -10.075  0.00  0.00    +0.000 HD
ENDBRANCH   2  16
BRANCH   2  20
ATOM     20  C   UNL     1      -1.788   6.840 -12.590  0.00  0.00    +0.000 C 
ATOM     21  H   UNL     1      -2.552   6.062 -12.706  0.00  0.00    +0.000 HD
ATOM     22  H   UNL     1      -0.832   6.335 -12.428  0.00  0.00    +0.000 HD
ATOM     23  H   UNL     1      -1.701   7.369 -13.545  0.00  0.00    +0.000 HD
ENDBRANCH   2  20
BRANCH   3  24
ATOM     24  C   UNL     1      -4.427   8.654 -12.533  0.00  0.00    +0.000 C 
ATOM     25  H   UNL     1      -4.841   7.731 -12.116  0.00  0.00    +0.000 HD
ATOM     26  H   UNL     1      -5.153   9.455 -12.359  0.00  0.00    +0.000 HD
ATOM     27  H   UNL     1      -4.340   8.529 -13.618  0.00  0.00    +0.000 HD
ENDBRANCH   3  24
TORSDOF 3
ENDMDL
MODEL 4
REMARK VINA RESULT:    -4.666      8.053      9.749
REMARK INTER + INTRA:          -5.076
REMARK INTER:                  -5.076
REMARK INTRA:                   0.000
REMARK UNBOUND:                 0.000
REMARK  Name = 2537
REMARK  3 active torsions:
REMARK  status: ('A' for Active; 'I' for Inactive)
REMARK    1  A    between atoms: C_2  and  C_9
REMARK    2  A    between atoms: C_2  and  C_10
REMARK    3  A    between atoms: C_3  and  C_11
REMARK                            x       y       z     vdW  Elec       q    Type
REMARK                         _______ _______ _______ _____ _____    ______ ____
ROOT
ATOM      1  O   UNL     1      -7.826   6.082  -4.216  0.00  0.00    +0.000 OA
ATOM      2  C   UNL     1      -9.077   4.296  -6.949  0.00  0.00    +0.000 C 
ATOM      3  C   UNL     1      -9.321   5.576  -6.102  0.00  0.00    +0.000 C 
ATOM      4  C   UNL     1      -9.434   3.361  -5.761  0.00  0.00    +0.000 C 
ATOM      5  C   UNL     1     -10.752   5.387  -5.549  0.00  0.00    +0.000 C 
ATOM      6  C   UNL     1     -10.840   3.860  -5.336  0.00  0.00    +0.000 C 
ATOM      7  C   UNL     1      -8.445   3.770  -4.642  0.00  0.00    +0.000 C 
ATOM      8  C   UNL     1      -8.433   5.265  -4.892  0.00  0.00    +0.000 C 
ATOM      9  H   UNL     1      -9.409   2.291  -5.981  0.00  0.00    +0.000 HD
ATOM     10  H   UNL     1     -11.518   5.726  -6.254  0.00  0.00    +0.000 HD
ATOM     11  H   UNL     1     -10.907   5.921  -4.604  0.00  0.00    +0.000 HD
ATOM     12  H   UNL     1     -11.075   3.608  -4.296  0.00  0.00    +0.000 HD
ATOM     13  H   UNL     1     -11.625   3.424  -5.963  0.00  0.00    +0.000 HD
ATOM     14  H   UNL     1      -7.449   3.350  -4.793  0.00  0.00    +0.000 HD
ATOM     15  H   UNL     1      -8.818   3.541  -3.641  0.00  0.00    +0.000 HD
ENDROOT
BRANCH   2  16
ATOM     16  C   UNL     1     -10.006   4.136  -8.168  0.00  0.00    +0.000 C 
ATOM     17  H   UNL     1     -11.071   4.187  -7.933  0.00  0.00    +0.000 HD
ATOM     18  H   UNL     1      -9.831   3.170  -8.655  0.00  0.00    +0.000 HD
ATOM     19  H   UNL     1      -9.813   4.921  -8.908  0.00  0.00    +0.000 HD
ENDBRANCH   2  16
BRANCH   2  20
ATOM     20  C   UNL     1      -7.634   4.137  -7.473  0.00  0.00    +0.000 C 
ATOM     21  H   UNL     1      -7.030   3.567  -6.758  0.00  0.00    +0.000 HD
ATOM     22  H   UNL     1      -7.118   5.084  -7.652  0.00  0.00    +0.000 HD
ATOM     23  H   UNL     1      -7.625   3.595  -8.425  0.00  0.00    +0.000 HD
ENDBRANCH   2  20
BRANCH   3  24
ATOM     24  C   UNL     1      -9.057   6.913  -6.751  0.00  0.00    +0.000 C 
ATOM     25  H   UNL     1      -9.942   7.283  -7.279  0.00  0.00    +0.000 HD
ATOM     26  H   UNL     1      -8.778   7.662  -6.001  0.00  0.00    +0.000 HD
ATOM     27  H   UNL     1      -8.231   6.854  -7.468  0.00  0.00    +0.000 HD
ENDBRANCH   3  24
TORSDOF 3
ENDMDL
MODEL 5
REMARK VINA RESULT:    -4.613     17.310     18.769
REMARK INTER + INTRA:          -5.017
REMARK INTER:                  -5.017
REMARK INTRA:                   0.000
REMARK UNBOUND:                 0.000
REMARK  Name = 2537
REMARK  3 active torsions:
REMARK  status: ('A' for Active; 'I' for Inactive)
REMARK    1  A    between atoms: C_2  and  C_9
REMARK    2  A    between atoms: C_2  and  C_10
REMARK    3  A    between atoms: C_3  and  C_11
REMARK                            x       y       z     vdW  Elec       q    Type
REMARK                         _______ _______ _______ _____ _____    ______ ____
ROOT
ATOM      1  O   UNL     1      -9.753  14.927   6.305  0.00  0.00    +0.000 OA
ATOM      2  C   UNL     1      -7.631  12.351   5.264  0.00  0.00    +0.000 C 
ATOM      3  C   UNL     1      -9.042  12.954   5.020  0.00  0.00    +0.000 C 
ATOM      4  C   UNL     1      -7.998  11.904   6.707  0.00  0.00    +0.000 C 
ATOM      5  C   UNL     1     -10.005  11.791   5.349  0.00  0.00    +0.000 C 
ATOM      6  C   UNL     1      -9.276  11.052   6.493  0.00  0.00    +0.000 C 
ATOM      7  C   UNL     1      -8.431  13.212   7.412  0.00  0.00    +0.000 C 
ATOM      8  C   UNL     1      -9.157  13.862   6.250  0.00  0.00    +0.000 C 
ATOM      9  H   UNL     1      -7.213  11.369   7.247  0.00  0.00    +0.000 HD
ATOM     10  H   UNL     1     -10.159  11.125   4.492  0.00  0.00    +0.000 HD
ATOM     11  H   UNL     1     -10.989  12.144   5.677  0.00  0.00    +0.000 HD
ATOM     12  H   UNL     1      -9.894  10.993   7.396  0.00  0.00    +0.000 HD
ATOM     13  H   UNL     1      -9.029  10.028   6.199  0.00  0.00    +0.000 HD
ATOM     14  H   UNL     1      -7.579  13.822   7.719  0.00  0.00    +0.000 HD
ATOM     15  H   UNL     1      -9.109  13.038   8.251  0.00  0.00    +0.000 HD
ENDROOT
BRANCH   2  16
ATOM     16  C   UNL     1      -7.252  11.185   4.330  0.00  0.00    +0.000 C 
ATOM     17  H   UNL     1      -7.786  10.254   4.532  0.00  0.00    +0.000 HD
ATOM     18  H   UNL     1      -6.182  10.965   4.412  0.00  0.00    +0.000 HD
ATOM     19  H   UNL     1      -7.460  11.443   3.285  0.00  0.00    +0.000 HD
ENDBRANCH   2  16
BRANCH   2  20
ATOM     20  C   UNL     1      -6.474  13.368   5.188  0.00  0.00    +0.000 C 
ATOM     21  H   UNL     1      -5.529  12.894   5.479  0.00  0.00    +0.000 HD
ATOM     22  H   UNL     1      -6.608  14.245   5.828  0.00  0.00    +0.000 HD
ATOM     23  H   UNL     1      -6.357  13.747   4.166  0.00  0.00    +0.000 HD
ENDBRANCH   2  20
BRANCH   3  24
ATOM     24  C   UNL     1      -9.297  13.645   3.702  0.00  0.00    +0.000 C 
ATOM     25  H   UNL     1     -10.303  14.074   3.665  0.00  0.00    +0.000 HD
ATOM     26  H   UNL     1      -8.580  14.458   3.543  0.00  0.00    +0.000 HD
ATOM     27  H   UNL     1      -9.190  12.952   2.861  0.00  0.00    +0.000 HD
ENDBRANCH   3  24
TORSDOF 3
ENDMDL
MODEL 6
REMARK VINA RESULT:    -4.574      1.957      3.220
REMARK INTER + INTRA:          -4.975
REMARK INTER:                  -4.975
REMARK INTRA:                   0.000
REMARK UNBOUND:                 0.000
REMARK  Name = 2537
REMARK  3 active torsions:
REMARK  status: ('A' for Active; 'I' for Inactive)
REMARK    1  A    between atoms: C_2  and  C_9
REMARK    2  A    between atoms: C_2  and  C_10
REMARK    3  A    between atoms: C_3  and  C_11
REMARK                            x       y       z     vdW  Elec       q    Type
REMARK                         _______ _______ _______ _____ _____    ______ ____
ROOT
ATOM      1  O   UNL     1      -3.323   6.877 -14.211  0.00  0.00    +0.000 OA
ATOM      2  C   UNL     1      -3.059   8.917 -11.384  0.00  0.00    +0.000 C 
ATOM      3  C   UNL     1      -2.225   7.993 -12.314  0.00  0.00    +0.000 C 
ATOM      4  C   UNL     1      -3.903   7.729 -10.847  0.00  0.00    +0.000 C 
ATOM      5  C   UNL     1      -1.680   6.904 -11.362  0.00  0.00    +0.000 C 
ATOM      6  C   UNL     1      -2.824   6.738 -10.337  0.00  0.00    +0.000 C 
ATOM      7  C   UNL     1      -4.535   7.105 -12.116  0.00  0.00    +0.000 C 
ATOM      8  C   UNL     1      -3.357   7.274 -13.056  0.00  0.00    +0.000 C 
ATOM      9  H   UNL     1      -4.644   7.984 -10.085  0.00  0.00    +0.000 HD
ATOM     10  H   UNL     1      -0.755   7.213 -10.865  0.00  0.00    +0.000 HD
ATOM     11  H   UNL     1      -1.481   5.959 -11.880  0.00  0.00    +0.000 HD
ATOM     12  H   UNL     1      -3.189   5.706 -10.301  0.00  0.00    +0.000 HD
ATOM     13  H   UNL     1      -2.485   7.001  -9.330  0.00  0.00    +0.000 HD
ATOM     14  H   UNL     1      -5.395   7.674 -12.475  0.00  0.00    +0.000 HD
ATOM     15  H   UNL     1      -4.789   6.051 -11.989  0.00  0.00    +0.000 HD
ENDROOT
BRANCH   2  16
ATOM     16  C   UNL     1      -2.248   9.647 -10.296  0.00  0.00    +0.000 C 
ATOM     17  H   UNL     1      -1.281   9.191 -10.073  0.00  0.00    +0.000 HD
ATOM     18  H   UNL     1      -2.812   9.676  -9.357  0.00  0.00    +0.000 HD
ATOM     19  H   UNL     1      -2.043  10.682 -10.593  0.00  0.00    +0.000 HD
ENDBRANCH   2  16
BRANCH   2  20
ATOM     20  C   UNL     1      -3.878   9.999 -12.119  0.00  0.00    +0.000 C 
ATOM     21  H   UNL     1      -4.379  10.654 -11.397  0.00  0.00    +0.000 HD
ATOM     22  H   UNL     1      -4.649   9.599 -12.784  0.00  0.00    +0.000 HD
ATOM     23  H   UNL     1      -3.227  10.623 -12.742  0.00  0.00    +0.000 HD
ENDBRANCH   2  20
BRANCH   3  24
ATOM     24  C   UNL     1      -1.194   8.636 -13.209  0.00  0.00    +0.000 C 
ATOM     25  H   UNL     1      -1.447   9.679 -13.426  0.00  0.00    +0.000 HD
ATOM     26  H   UNL     1      -0.205   8.624 -12.737  0.00  0.00    +0.000 HD
ATOM     27  H   UNL     1      -1.102   8.103 -14.161  0.00  0.00    +0.000 HD
ENDBRANCH   3  24
TORSDOF 3
ENDMDL
MODEL 7
REMARK VINA RESULT:    -4.454     17.259     18.759
REMARK INTER + INTRA:          -4.845
REMARK INTER:                  -4.845
REMARK INTRA:                   0.000
REMARK UNBOUND:                 0.000
REMARK  Name = 2537
REMARK  3 active torsions:
REMARK  status: ('A' for Active; 'I' for Inactive)
REMARK    1  A    between atoms: C_2  and  C_9
REMARK    2  A    between atoms: C_2  and  C_10
REMARK    3  A    between atoms: C_3  and  C_11
REMARK                            x       y       z     vdW  Elec       q    Type
REMARK                         _______ _______ _______ _____ _____    ______ ____
ROOT
ATOM      1  O   UNL     1     -10.533  11.628   6.373  0.00  0.00    +0.000 OA
ATOM      2  C   UNL     1      -7.493  12.782   5.088  0.00  0.00    +0.000 C 
ATOM      3  C   UNL     1      -8.358  12.776   6.379  0.00  0.00    +0.000 C 
ATOM      4  C   UNL     1      -8.521  13.660   4.323  0.00  0.00    +0.000 C 
ATOM      5  C   UNL     1      -8.603  14.274   6.668  0.00  0.00    +0.000 C 
ATOM      6  C   UNL     1      -8.691  14.888   5.254  0.00  0.00    +0.000 C 
ATOM      7  C   UNL     1      -9.839  12.849   4.389  0.00  0.00    +0.000 C 
ATOM      8  C   UNL     1      -9.697  12.308   5.798  0.00  0.00    +0.000 C 
ATOM      9  H   UNL     1      -8.240  13.932   3.302  0.00  0.00    +0.000 HD
ATOM     10  H   UNL     1      -7.784  14.726   7.238  0.00  0.00    +0.000 HD
ATOM     11  H   UNL     1      -9.531  14.445   7.226  0.00  0.00    +0.000 HD
ATOM     12  H   UNL     1      -9.645  15.404   5.095  0.00  0.00    +0.000 HD
ATOM     13  H   UNL     1      -7.893  15.621   5.098  0.00  0.00    +0.000 HD
ATOM     14  H   UNL     1      -9.861  12.031   3.666  0.00  0.00    +0.000 HD
ATOM     15  H   UNL     1     -10.728  13.477   4.296  0.00  0.00    +0.000 HD
ENDROOT
BRANCH   2  16
ATOM     16  C   UNL     1      -6.106  13.436   5.238  0.00  0.00    +0.000 C 
ATOM     17  H   UNL     1      -5.281  12.727   5.330  0.00  0.00    +0.000 HD
ATOM     18  H   UNL     1      -6.081  14.074   6.129  0.00  0.00    +0.000 HD
ATOM     19  H   UNL     1      -5.879  14.067   4.371  0.00  0.00    +0.000 HD
ENDBRANCH   2  16
BRANCH   2  20
ATOM     20  C   UNL     1      -7.257  11.390   4.466  0.00  0.00    +0.000 C 
ATOM     21  H   UNL     1      -8.212  10.877   4.304  0.00  0.00    +0.000 HD
ATOM     22  H   UNL     1      -6.632  10.730   5.074  0.00  0.00    +0.000 HD
ATOM     23  H   UNL     1      -6.757  11.480   3.494  0.00  0.00    +0.000 HD
ENDBRANCH   2  20
BRANCH   3  24
ATOM     24  C   UNL     1      -7.866  11.968   7.556  0.00  0.00    +0.000 C 
ATOM     25  H   UNL     1      -7.779  10.907   7.302  0.00  0.00    +0.000 HD
ATOM     26  H   UNL     1      -6.879  12.316   7.882  0.00  0.00    +0.000 HD
ATOM     27  H   UNL     1      -8.539  12.061   8.414  0.00  0.00    +0.000 HD
ENDBRANCH   3  24
TORSDOF 3
ENDMDL
MODEL 8
REMARK VINA RESULT:    -4.310     26.961     28.129
REMARK INTER + INTRA:          -4.688
REMARK INTER:                  -4.688
REMARK INTRA:                   0.000
REMARK UNBOUND:                 0.000
REMARK  Name = 2537
REMARK  3 active torsions:
REMARK  status: ('A' for Active; 'I' for Inactive)
REMARK    1  A    between atoms: C_2  and  C_9
REMARK    2  A    between atoms: C_2  and  C_10
REMARK    3  A    between atoms: C_3  and  C_11
REMARK                            x       y       z     vdW  Elec       q    Type
REMARK                         _______ _______ _______ _____ _____    ______ ____
ROOT
ATOM      1  O   UNL     1      11.512  -4.841   9.952  0.00  0.00    +0.000 OA
ATOM      2  C   UNL     1      14.018  -4.690   7.518  0.00  0.00    +0.000 C 
ATOM      3  C   UNL     1      13.286  -3.827   8.582  0.00  0.00    +0.000 C 
ATOM      4  C   UNL     1      12.736  -4.832   6.653  0.00  0.00    +0.000 C 
ATOM      5  C   UNL     1      12.663  -2.675   7.761  0.00  0.00    +0.000 C 
ATOM      6  C   UNL     1      12.306  -3.360   6.423  0.00  0.00    +0.000 C 
ATOM      7  C   UNL     1      11.698  -5.468   7.610  0.00  0.00    +0.000 C 
ATOM      8  C   UNL     1      12.086  -4.734   8.878  0.00  0.00    +0.000 C 
ATOM      9  H   UNL     1      12.856  -5.393   5.723  0.00  0.00    +0.000 HD
ATOM     10  H   UNL     1      13.367  -1.852   7.600  0.00  0.00    +0.000 HD
ATOM     11  H   UNL     1      11.767  -2.260   8.237  0.00  0.00    +0.000 HD
ATOM     12  H   UNL     1      11.239  -3.267   6.192  0.00  0.00    +0.000 HD
ATOM     13  H   UNL     1      12.860  -2.907   5.594  0.00  0.00    +0.000 HD
ATOM     14  H   UNL     1      11.847  -6.543   7.730  0.00  0.00    +0.000 HD
ATOM     15  H   UNL     1      10.667  -5.246   7.327  0.00  0.00    +0.000 HD
ENDROOT
BRANCH   2  16
ATOM     16  C   UNL     1      15.181  -3.983   6.796  0.00  0.00    +0.000 C 
ATOM     17  H   UNL     1      14.886  -3.429   5.902  0.00  0.00    +0.000 HD
ATOM     18  H   UNL     1      15.935  -4.714   6.484  0.00  0.00    +0.000 HD
ATOM     19  H   UNL     1      15.670  -3.263   7.461  0.00  0.00    +0.000 HD
ENDBRANCH   2  16
BRANCH   2  20
ATOM     20  C   UNL     1      14.579  -6.026   8.049  0.00  0.00    +0.000 C 
ATOM     21  H   UNL     1      13.788  -6.601   8.544  0.00  0.00    +0.000 HD
ATOM     22  H   UNL     1      15.397  -5.913   8.766  0.00  0.00    +0.000 HD
ATOM     23  H   UNL     1      14.971  -6.635   7.227  0.00  0.00    +0.000 HD
ENDBRANCH   2  20
BRANCH   3  24
ATOM     24  C   UNL     1      14.065  -3.396   9.801  0.00  0.00    +0.000 C 
ATOM     25  H   UNL     1      13.501  -2.673  10.400  0.00  0.00    +0.000 HD
ATOM     26  H   UNL     1      14.294  -4.254  10.442  0.00  0.00    +0.000 HD
ATOM     27  H   UNL     1      15.020  -2.937   9.524  0.00  0.00    +0.000 HD
ENDBRANCH   3  24
TORSDOF 3
ENDMDL
MODEL 9
REMARK VINA RESULT:    -4.217     11.532     13.103
REMARK INTER + INTRA:          -4.587
REMARK INTER:                  -4.587
REMARK INTRA:                   0.000
REMARK UNBOUND:                 0.000
REMARK  Name = 2537
REMARK  3 active torsions:
REMARK  status: ('A' for Active; 'I' for Inactive)
REMARK    1  A    between atoms: C_2  and  C_9
REMARK    2  A    between atoms: C_2  and  C_10
REMARK    3  A    between atoms: C_3  and  C_11
REMARK                            x       y       z     vdW  Elec       q    Type
REMARK                         _______ _______ _______ _____ _____    ______ ____
ROOT
ATOM      1  O   UNL     1       4.046  -1.141 -18.383  0.00  0.00    +0.000 OA
ATOM      2  C   UNL     1       4.303  -2.177 -15.054  0.00  0.00    +0.000 C 
ATOM      3  C   UNL     1       3.375  -1.405 -16.031  0.00  0.00    +0.000 C 
ATOM      4  C   UNL     1       5.411  -1.091 -15.140  0.00  0.00    +0.000 C 
ATOM      5  C   UNL     1       3.261   0.002 -15.401  0.00  0.00    +0.000 C 
ATOM      6  C   UNL     1       4.654   0.210 -14.766  0.00  0.00    +0.000 C 
ATOM      7  C   UNL     1       5.746  -1.007 -16.650  0.00  0.00    +0.000 C 
ATOM      8  C   UNL     1       4.344  -1.187 -17.199  0.00  0.00    +0.000 C 
ATOM      9  H   UNL     1       6.292  -1.267 -14.519  0.00  0.00    +0.000 HD
ATOM     10  H   UNL     1       2.475   0.053 -14.639  0.00  0.00    +0.000 HD
ATOM     11  H   UNL     1       3.053   0.778 -16.147  0.00  0.00    +0.000 HD
ATOM     12  H   UNL     1       5.147   1.107 -15.155  0.00  0.00    +0.000 HD
ATOM     13  H   UNL     1       4.573   0.326 -13.681  0.00  0.00    +0.000 HD
ATOM     14  H   UNL     1       6.392  -1.824 -16.979  0.00  0.00    +0.000 HD
ATOM     15  H   UNL     1       6.161  -0.040 -16.940  0.00  0.00    +0.000 HD
ENDROOT
BRANCH   2  16
ATOM     16  C   UNL     1       3.734  -2.373 -13.635  0.00  0.00    +0.000 C 
ATOM     17  H   UNL     1       4.479  -2.310 -12.838  0.00  0.00    +0.000 HD
ATOM     18  H   UNL     1       3.256  -3.355 -13.550  0.00  0.00    +0.000 HD
ATOM     19  H   UNL     1       2.976  -1.613 -13.413  0.00  0.00    +0.000 HD
ENDBRANCH   2  16
BRANCH   2  20
ATOM     20  C   UNL     1       4.740  -3.572 -15.548  0.00  0.00    +0.000 C 
ATOM     21  H   UNL     1       4.007  -4.329 -15.247  0.00  0.00    +0.000 HD
ATOM     22  H   UNL     1       5.714  -3.893 -15.170  0.00  0.00    +0.000 HD
ATOM     23  H   UNL     1       4.811  -3.591 -16.641  0.00  0.00    +0.000 HD
ENDBRANCH   2  20
BRANCH   3  24
ATOM     24  C   UNL     1       2.062  -2.044 -16.413  0.00  0.00    +0.000 C 
ATOM     25  H   UNL     1       2.194  -3.098 -16.677  0.00  0.00    +0.000 HD
ATOM     26  H   UNL     1       1.348  -1.994 -15.584  0.00  0.00    +0.000 HD
ATOM     27  H   UNL     1       1.602  -1.534 -17.266  0.00  0.00    +0.000 HD
ENDBRANCH   3  24
TORSDOF 3
ENDMDL
MODEL 10
REMARK VINA RESULT:    -4.143     17.444     18.982
REMARK INTER + INTRA:          -4.506
REMARK INTER:                  -4.506
REMARK INTRA:                   0.000
REMARK UNBOUND:                 0.000
REMARK  Name = 2537
REMARK  3 active torsions:
REMARK  status: ('A' for Active; 'I' for Inactive)
REMARK    1  A    between atoms: C_2  and  C_9
REMARK    2  A    between atoms: C_2  and  C_10
REMARK    3  A    between atoms: C_3  and  C_11
REMARK                            x       y       z     vdW  Elec       q    Type
REMARK                         _______ _______ _______ _____ _____    ______ ____
ROOT
ATOM      1  O   UNL     1     -10.210  12.943   4.261  0.00  0.00    +0.000 OA
ATOM      2  C   UNL     1      -7.793  12.497   6.747  0.00  0.00    +0.000 C 
ATOM      3  C   UNL     1      -8.674  13.584   6.071  0.00  0.00    +0.000 C 
ATOM      4  C   UNL     1      -6.970  12.262   5.450  0.00  0.00    +0.000 C 
ATOM      5  C   UNL     1      -7.649  14.591   5.502  0.00  0.00    +0.000 C 
ATOM      6  C   UNL     1      -6.465  13.685   5.096  0.00  0.00    +0.000 C 
ATOM      7  C   UNL     1      -8.030  11.875   4.390  0.00  0.00    +0.000 C 
ATOM      8  C   UNL     1      -9.136  12.815   4.829  0.00  0.00    +0.000 C 
ATOM      9  H   UNL     1      -6.163  11.530   5.531  0.00  0.00    +0.000 HD
ATOM     10  H   UNL     1      -7.335  15.330   6.247  0.00  0.00    +0.000 HD
ATOM     11  H   UNL     1      -8.037  15.136   4.634  0.00  0.00    +0.000 HD
ATOM     12  H   UNL     1      -6.221  13.789   4.033  0.00  0.00    +0.000 HD
ATOM     13  H   UNL     1      -5.566  13.943   5.665  0.00  0.00    +0.000 HD
ATOM     14  H   UNL     1      -8.352  10.836   4.483  0.00  0.00    +0.000 HD
ATOM     15  H   UNL     1      -7.709  12.094   3.369  0.00  0.00    +0.000 HD
ENDROOT
BRANCH   2  16
ATOM     16  C   UNL     1      -6.949  12.991   7.938  0.00  0.00    +0.000 C 
ATOM     17  H   UNL     1      -6.006  13.463   7.657  0.00  0.00    +0.000 HD
ATOM     18  H   UNL     1      -6.704  12.155   8.603  0.00  0.00    +0.000 HD
ATOM     19  H   UNL     1      -7.505  13.731   8.525  0.00  0.00    +0.000 HD
ENDBRANCH   2  16
BRANCH   2  20
ATOM     20  C   UNL     1      -8.567  11.257   7.242  0.00  0.00    +0.000 C 
ATOM     21  H   UNL     1      -8.140  10.892   8.183  0.00  0.00    +0.000 HD
ATOM     22  H   UNL     1      -8.567  10.421   6.538  0.00  0.00    +0.000 HD
ATOM     23  H   UNL     1      -9.619  11.505   7.426  0.00  0.00    +0.000 HD
ENDBRANCH   2  20
BRANCH   3  24
ATOM     24  C   UNL     1      -9.789  14.196   6.884  0.00  0.00    +0.000 C 
ATOM     25  H   UNL     1      -9.527  15.202   7.226  0.00  0.00    +0.000 HD
ATOM     26  H   UNL     1     -10.707  14.273   6.292  0.00  0.00    +0.000 HD
ATOM     27  H   UNL     1     -10.023  13.587   7.764  0.00  0.00    +0.000 HD
ENDBRANCH   3  24
TORSDOF 3
ENDMDL
