MODEL 1
REMARK VINA RESULT:    -5.138      0.000      0.000
REMARK INTER + INTRA:          -6.086
REMARK INTER:                  -5.887
REMARK INTRA:                  -0.199
REMARK UNBOUND:                -0.197
REMARK  Name = 10106
REMARK  4 active torsions:
REMARK  status: ('A' for Active; 'I' for Inactive)
REMARK    1  A    between atoms: C_2  and  C_8
REMARK    2  A    between atoms: C_3  and  C_9
REMARK    3  A    between atoms: C_8  and  C_10
REMARK    4  A    between atoms: C_8  and  C_11
REMARK                            x       y       z     vdW  Elec       q    Type
REMARK                         _______ _______ _______ _____ _____    ______ ____
ROOT
ATOM      1  O   UNL     1       5.437   8.996   4.065  0.00  0.00    +0.000 OA
ATOM      2  C   UNL     1       5.475   8.152   2.889  0.00  0.00    +0.000 C 
ATOM      3  C   UNL     1       6.678   8.531   4.652  0.00  0.00    +0.000 C 
ATOM      4  C   UNL     1       5.565   6.757   3.519  0.00  0.00    +0.000 C 
ATOM      5  C   UNL     1       6.824   8.546   2.276  0.00  0.00    +0.000 C 
ATOM      6  C   UNL     1       6.415   7.025   4.764  0.00  0.00    +0.000 C 
ATOM      7  C   UNL     1       7.672   8.815   3.520  0.00  0.00    +0.000 C 
ATOM      8  H   UNL     1       6.029   6.020   2.856  0.00  0.00    +0.000 HD
ATOM      9  H   UNL     1       4.600   6.357   3.842  0.00  0.00    +0.000 HD
ATOM     10  H   UNL     1       6.746   9.466   1.686  0.00  0.00    +0.000 HD
ATOM     11  H   UNL     1       7.252   7.766   1.639  0.00  0.00    +0.000 HD
ATOM     12  H   UNL     1       5.830   6.789   5.660  0.00  0.00    +0.000 HD
ATOM     13  H   UNL     1       7.334   6.432   4.788  0.00  0.00    +0.000 HD
ATOM     14  H   UNL     1       8.565   8.184   3.570  0.00  0.00    +0.000 HD
ATOM     15  H   UNL     1       7.993   9.863   3.521  0.00  0.00    +0.000 HD
ENDROOT
BRANCH   3  16
ATOM     16  C   UNL     1       6.993   9.219   5.960  0.00  0.00    +0.000 C 
ATOM     17  H   UNL     1       7.032   8.504   6.787  0.00  0.00    +0.000 HD
ATOM     18  H   UNL     1       7.952   9.744   5.903  0.00  0.00    +0.000 HD
ATOM     19  H   UNL     1       6.240   9.981   6.190  0.00  0.00    +0.000 HD
ENDBRANCH   3  16
BRANCH   2  20
ATOM     20  C   UNL     1       4.283   8.363   1.986  0.00  0.00    +0.000 C 
ATOM     21  H   UNL     1       3.802   7.394   1.798  0.00  0.00    +0.000 HD
BRANCH  20  22
ATOM     22  C   UNL     1       3.258   9.304   2.631  0.00  0.00    +0.000 C 
ATOM     23  H   UNL     1       2.677   8.803   3.412  0.00  0.00    +0.000 HD
ATOM     24  H   UNL     1       3.766  10.157   3.094  0.00  0.00    +0.000 HD
ATOM     25  H   UNL     1       2.561   9.703   1.888  0.00  0.00    +0.000 HD
ENDBRANCH  20  22
BRANCH  20  26
ATOM     26  C   UNL     1       4.712   8.914   0.621  0.00  0.00    +0.000 C 
ATOM     27  H   UNL     1       4.680  10.007   0.578  0.00  0.00    +0.000 HD
ATOM     28  H   UNL     1       4.031   8.549  -0.157  0.00  0.00    +0.000 HD
ATOM     29  H   UNL     1       5.719   8.585   0.348  0.00  0.00    +0.000 HD
ENDBRANCH  20  26
ENDBRANCH   2  20
TORSDOF 4
ENDMDL
MODEL 2
REMARK VINA RESULT:    -5.008      2.974      4.674
REMARK INTER + INTRA:          -5.937
REMARK INTER:                  -5.744
REMARK INTRA:                  -0.193
REMARK UNBOUND:                -0.197
REMARK  Name = 10106
REMARK  4 active torsions:
REMARK  status: ('A' for Active; 'I' for Inactive)
REMARK    1  A    between atoms: C_2  and  C_8
REMARK    2  A    between atoms: C_3  and  C_9
REMARK    3  A    between atoms: C_8  and  C_10
REMARK    4  A    between atoms: C_8  and  C_11
REMARK                            x       y       z     vdW  Elec       q    Type
REMARK                         _______ _______ _______ _____ _____    ______ ____
ROOT
ATOM      1  O   UNL     1       8.204   9.183   0.522  0.00  0.00    +0.000 OA
ATOM      2  C   UNL     1       6.818   8.765   0.528  0.00  0.00    +0.000 C 
ATOM      3  C   UNL     1       8.244   9.631  -0.855  0.00  0.00    +0.000 C 
ATOM      4  C   UNL     1       6.801   7.751  -0.623  0.00  0.00    +0.000 C 
ATOM      5  C   UNL     1       6.109  10.058   0.107  0.00  0.00    +0.000 C 
ATOM      6  C   UNL     1       7.808   8.364  -1.599  0.00  0.00    +0.000 C 
ATOM      7  C   UNL     1       7.117  10.669  -0.868  0.00  0.00    +0.000 C 
ATOM      8  H   UNL     1       5.810   7.635  -1.073  0.00  0.00    +0.000 HD
ATOM      9  H   UNL     1       7.158   6.758  -0.339  0.00  0.00    +0.000 HD
ATOM     10  H   UNL     1       5.970  10.737   0.956  0.00  0.00    +0.000 HD
ATOM     11  H   UNL     1       5.133   9.884  -0.355  0.00  0.00    +0.000 HD
ATOM     12  H   UNL     1       8.648   7.673  -1.735  0.00  0.00    +0.000 HD
ATOM     13  H   UNL     1       7.375   8.573  -2.582  0.00  0.00    +0.000 HD
ATOM     14  H   UNL     1       6.698  10.831  -1.866  0.00  0.00    +0.000 HD
ATOM     15  H   UNL     1       7.457  11.636  -0.480  0.00  0.00    +0.000 HD
ENDROOT
BRANCH   3  16
ATOM     16  C   UNL     1       9.601  10.164  -1.251  0.00  0.00    +0.000 C 
ATOM     17  H   UNL     1       9.596  10.546  -2.277  0.00  0.00    +0.000 HD
ATOM     18  H   UNL     1       9.915  10.969  -0.579  0.00  0.00    +0.000 HD
ATOM     19  H   UNL     1      10.365   9.383  -1.172  0.00  0.00    +0.000 HD
ENDBRANCH   3  16
BRANCH   2  20
ATOM     20  C   UNL     1       6.385   8.212   1.865  0.00  0.00    +0.000 C 
ATOM     21  H   UNL     1       6.386   7.115   1.815  0.00  0.00    +0.000 HD
BRANCH  20  22
ATOM     22  C   UNL     1       7.338   8.653   2.982  0.00  0.00    +0.000 C 
ATOM     23  H   UNL     1       7.780   9.634   2.780  0.00  0.00    +0.000 HD
ATOM     24  H   UNL     1       6.799   8.726   3.934  0.00  0.00    +0.000 HD
ATOM     25  H   UNL     1       8.150   7.932   3.121  0.00  0.00    +0.000 HD
ENDBRANCH  20  22
BRANCH  20  26
ATOM     26  C   UNL     1       4.950   8.636   2.203  0.00  0.00    +0.000 C 
ATOM     27  H   UNL     1       4.701   9.628   1.813  0.00  0.00    +0.000 HD
ATOM     28  H   UNL     1       4.825   8.684   3.291  0.00  0.00    +0.000 HD
ATOM     29  H   UNL     1       4.215   7.919   1.826  0.00  0.00    +0.000 HD
ENDBRANCH  20  26
ENDBRANCH   2  20
TORSDOF 4
ENDMDL
MODEL 3
REMARK VINA RESULT:    -4.981      2.031      3.774
REMARK INTER + INTRA:          -5.907
REMARK INTER:                  -5.723
REMARK INTRA:                  -0.184
REMARK UNBOUND:                -0.197
REMARK  Name = 10106
REMARK  4 active torsions:
REMARK  status: ('A' for Active; 'I' for Inactive)
REMARK    1  A    between atoms: C_2  and  C_8
REMARK    2  A    between atoms: C_3  and  C_9
REMARK    3  A    between atoms: C_8  and  C_10
REMARK    4  A    between atoms: C_8  and  C_11
REMARK                            x       y       z     vdW  Elec       q    Type
REMARK                         _______ _______ _______ _____ _____    ______ ____
ROOT
ATOM      1  O   UNL     1       5.956   9.803   1.039  0.00  0.00    +0.000 OA
ATOM      2  C   UNL     1       6.370   8.661   1.826  0.00  0.00    +0.000 C 
ATOM      3  C   UNL     1       7.094   9.818   0.143  0.00  0.00    +0.000 C 
ATOM      4  C   UNL     1       7.747   9.118   2.323  0.00  0.00    +0.000 C 
ATOM      5  C   UNL     1       6.526   7.586   0.744  0.00  0.00    +0.000 C 
ATOM      6  C   UNL     1       8.258   9.935   1.134  0.00  0.00    +0.000 C 
ATOM      7  C   UNL     1       7.035   8.404  -0.444  0.00  0.00    +0.000 C 
ATOM      8  H   UNL     1       8.411   8.282   2.563  0.00  0.00    +0.000 HD
ATOM      9  H   UNL     1       7.704   9.774   3.197  0.00  0.00    +0.000 HD
ATOM     10  H   UNL     1       5.562   7.133   0.484  0.00  0.00    +0.000 HD
ATOM     11  H   UNL     1       7.215   6.786   1.027  0.00  0.00    +0.000 HD
ATOM     12  H   UNL     1       8.412  10.974   1.447  0.00  0.00    +0.000 HD
ATOM     13  H   UNL     1       9.202   9.556   0.731  0.00  0.00    +0.000 HD
ATOM     14  H   UNL     1       8.004   8.056  -0.815  0.00  0.00    +0.000 HD
ATOM     15  H   UNL     1       6.312   8.340  -1.265  0.00  0.00    +0.000 HD
ENDROOT
BRANCH   3  16
ATOM     16  C   UNL     1       7.013  10.931  -0.876  0.00  0.00    +0.000 C 
ATOM     17  H   UNL     1       6.391  11.757  -0.516  0.00  0.00    +0.000 HD
ATOM     18  H   UNL     1       8.010  11.319  -1.109  0.00  0.00    +0.000 HD
ATOM     19  H   UNL     1       6.597  10.565  -1.821  0.00  0.00    +0.000 HD
ENDBRANCH   3  16
BRANCH   2  20
ATOM     20  C   UNL     1       5.384   8.322   2.919  0.00  0.00    +0.000 C 
ATOM     21  H   UNL     1       5.539   9.005   3.764  0.00  0.00    +0.000 HD
BRANCH  20  22
ATOM     22  C   UNL     1       3.939   8.468   2.427  0.00  0.00    +0.000 C 
ATOM     23  H   UNL     1       3.213   8.173   3.192  0.00  0.00    +0.000 HD
ATOM     24  H   UNL     1       3.732   9.510   2.161  0.00  0.00    +0.000 HD
ATOM     25  H   UNL     1       3.760   7.862   1.533  0.00  0.00    +0.000 HD
ENDBRANCH  20  22
BRANCH  20  26
ATOM     26  C   UNL     1       5.614   6.902   3.453  0.00  0.00    +0.000 C 
ATOM     27  H   UNL     1       6.661   6.592   3.389  0.00  0.00    +0.000 HD
ATOM     28  H   UNL     1       5.036   6.186   2.858  0.00  0.00    +0.000 HD
ATOM     29  H   UNL     1       5.283   6.800   4.491  0.00  0.00    +0.000 HD
ENDBRANCH  20  26
ENDBRANCH   2  20
TORSDOF 4
ENDMDL
MODEL 4
REMARK VINA RESULT:    -4.945     15.670     16.951
REMARK INTER + INTRA:          -5.865
REMARK INTER:                  -5.689
REMARK INTRA:                  -0.176
REMARK UNBOUND:                -0.197
REMARK  Name = 10106
REMARK  4 active torsions:
REMARK  status: ('A' for Active; 'I' for Inactive)
REMARK    1  A    between atoms: C_2  and  C_8
REMARK    2  A    between atoms: C_3  and  C_9
REMARK    3  A    between atoms: C_8  and  C_10
REMARK    4  A    between atoms: C_8  and  C_11
REMARK                            x       y       z     vdW  Elec       q    Type
REMARK                         _______ _______ _______ _____ _____    ______ ____
ROOT
ATOM      1  O   UNL     1      -2.831   9.056 -11.993  0.00  0.00    +0.000 OA
ATOM      2  C   UNL     1      -2.542   8.228 -10.840  0.00  0.00    +0.000 C 
ATOM      3  C   UNL     1      -1.468   9.472 -12.254  0.00  0.00    +0.000 C 
ATOM      4  C   UNL     1      -1.842   9.231  -9.915  0.00  0.00    +0.000 C 
ATOM      5  C   UNL     1      -1.522   7.242 -11.422  0.00  0.00    +0.000 C 
ATOM      6  C   UNL     1      -1.084  10.109 -10.914  0.00  0.00    +0.000 C 
ATOM      7  C   UNL     1      -0.766   8.120 -12.421  0.00  0.00    +0.000 C 
ATOM      8  H   UNL     1      -1.170   8.750  -9.197  0.00  0.00    +0.000 HD
ATOM      9  H   UNL     1      -2.532   9.866  -9.353  0.00  0.00    +0.000 HD
ATOM     10  H   UNL     1      -2.014   6.424 -11.961  0.00  0.00    +0.000 HD
ATOM     11  H   UNL     1      -0.863   6.806 -10.666  0.00  0.00    +0.000 HD
ATOM     12  H   UNL     1      -1.451  11.139 -10.842  0.00  0.00    +0.000 HD
ATOM     13  H   UNL     1      -0.004  10.117 -10.739  0.00  0.00    +0.000 HD
ATOM     14  H   UNL     1       0.308   8.169 -12.215  0.00  0.00    +0.000 HD
ATOM     15  H   UNL     1      -0.902   7.720 -13.432  0.00  0.00    +0.000 HD
ENDROOT
BRANCH   3  16
ATOM     16  C   UNL     1      -1.363  10.393 -13.447  0.00  0.00    +0.000 C 
ATOM     17  H   UNL     1      -2.082  11.215 -13.381  0.00  0.00    +0.000 HD
ATOM     18  H   UNL     1      -0.356  10.814 -13.527  0.00  0.00    +0.000 HD
ATOM     19  H   UNL     1      -1.542   9.845 -14.379  0.00  0.00    +0.000 HD
ENDBRANCH   3  16
BRANCH   2  20
ATOM     20  C   UNL     1      -3.781   7.589 -10.260  0.00  0.00    +0.000 C 
ATOM     21  H   UNL     1      -4.438   8.377  -9.867  0.00  0.00    +0.000 HD
BRANCH  20  22
ATOM     22  C   UNL     1      -4.547   6.796 -11.325  0.00  0.00    +0.000 C 
ATOM     23  H   UNL     1      -4.029   6.799 -12.289  0.00  0.00    +0.000 HD
ATOM     24  H   UNL     1      -4.657   5.751 -11.014  0.00  0.00    +0.000 HD
ATOM     25  H   UNL     1      -5.554   7.199 -11.475  0.00  0.00    +0.000 HD
ENDBRANCH  20  22
BRANCH  20  26
ATOM     26  C   UNL     1      -3.433   6.676  -9.078  0.00  0.00    +0.000 C 
ATOM     27  H   UNL     1      -3.081   5.690  -9.395  0.00  0.00    +0.000 HD
ATOM     28  H   UNL     1      -4.324   6.511  -8.462  0.00  0.00    +0.000 HD
ATOM     29  H   UNL     1      -2.673   7.123  -8.429  0.00  0.00    +0.000 HD
ENDBRANCH  20  26
ENDBRANCH   2  20
TORSDOF 4
ENDMDL
MODEL 5
REMARK VINA RESULT:    -4.941     15.642     16.907
REMARK INTER + INTRA:          -5.861
REMARK INTER:                  -5.690
REMARK INTRA:                  -0.171
REMARK UNBOUND:                -0.197
REMARK  Name = 10106
REMARK  4 active torsions:
REMARK  status: ('A' for Active; 'I' for Inactive)
REMARK    1  A    between atoms: C_2  and  C_8
REMARK    2  A    between atoms: C_3  and  C_9
REMARK    3  A    between atoms: C_8  and  C_10
REMARK    4  A    between atoms: C_8  and  C_11
REMARK                            x       y       z     vdW  Elec       q    Type
REMARK                         _______ _______ _______ _____ _____    ______ ____
ROOT
ATOM      1  O   UNL     1      -1.711   7.909 -11.559  0.00  0.00    +0.000 OA
ATOM      2  C   UNL     1      -2.933   8.121 -10.812  0.00  0.00    +0.000 C 
ATOM      3  C   UNL     1      -1.422   9.305 -11.819  0.00  0.00    +0.000 C 
ATOM      4  C   UNL     1      -3.771   8.916 -11.822  0.00  0.00    +0.000 C 
ATOM      5  C   UNL     1      -2.446   9.040  -9.687  0.00  0.00    +0.000 C 
ATOM      6  C   UNL     1      -2.703   9.752 -12.531  0.00  0.00    +0.000 C 
ATOM      7  C   UNL     1      -1.378   9.874 -10.397  0.00  0.00    +0.000 C 
ATOM      8  H   UNL     1      -4.532   9.542 -11.343  0.00  0.00    +0.000 HD
ATOM      9  H   UNL     1      -4.271   8.292 -12.567  0.00  0.00    +0.000 HD
ATOM     10  H   UNL     1      -1.978   8.471  -8.875  0.00  0.00    +0.000 HD
ATOM     11  H   UNL     1      -3.241   9.657  -9.258  0.00  0.00    +0.000 HD
ATOM     12  H   UNL     1      -2.682   9.486 -13.594  0.00  0.00    +0.000 HD
ATOM     13  H   UNL     1      -2.883  10.829 -12.453  0.00  0.00    +0.000 HD
ATOM     14  H   UNL     1      -1.585  10.948 -10.361  0.00  0.00    +0.000 HD
ATOM     15  H   UNL     1      -0.405   9.698  -9.924  0.00  0.00    +0.000 HD
ENDROOT
BRANCH   3  16
ATOM     16  C   UNL     1      -0.153   9.494 -12.617  0.00  0.00    +0.000 C 
ATOM     17  H   UNL     1       0.539  10.174 -12.111  0.00  0.00    +0.000 HD
ATOM     18  H   UNL     1       0.352   8.537 -12.779  0.00  0.00    +0.000 HD
ATOM     19  H   UNL     1      -0.375   9.897 -13.612  0.00  0.00    +0.000 HD
ENDBRANCH   3  16
BRANCH   2  20
ATOM     20  C   UNL     1      -3.561   6.828 -10.348  0.00  0.00    +0.000 C 
ATOM     21  H   UNL     1      -2.965   5.987 -10.726  0.00  0.00    +0.000 HD
BRANCH  20  22
ATOM     22  C   UNL     1      -3.606   6.752  -8.818  0.00  0.00    +0.000 C 
ATOM     23  H   UNL     1      -2.851   7.393  -8.353  0.00  0.00    +0.000 HD
ATOM     24  H   UNL     1      -4.586   7.077  -8.450  0.00  0.00    +0.000 HD
ATOM     25  H   UNL     1      -3.449   5.727  -8.465  0.00  0.00    +0.000 HD
ENDBRANCH  20  22
BRANCH  20  26
ATOM     26  C   UNL     1      -4.973   6.660 -10.922  0.00  0.00    +0.000 C 
ATOM     27  H   UNL     1      -5.747   6.672 -10.149  0.00  0.00    +0.000 HD
ATOM     28  H   UNL     1      -5.052   5.694 -11.433  0.00  0.00    +0.000 HD
ATOM     29  H   UNL     1      -5.206   7.434 -11.660  0.00  0.00    +0.000 HD
ENDBRANCH  20  26
ENDBRANCH   2  20
TORSDOF 4
ENDMDL
MODEL 6
REMARK VINA RESULT:    -4.877     15.357     17.319
REMARK INTER + INTRA:          -5.787
REMARK INTER:                  -5.586
REMARK INTRA:                  -0.201
REMARK UNBOUND:                -0.197
REMARK  Name = 10106
REMARK  4 active torsions:
REMARK  status: ('A' for Active; 'I' for Inactive)
REMARK    1  A    between atoms: C_2  and  C_8
REMARK    2  A    between atoms: C_3  and  C_9
REMARK    3  A    between atoms: C_8  and  C_10
REMARK    4  A    between atoms: C_8  and  C_11
REMARK                            x       y       z     vdW  Elec       q    Type
REMARK                         _______ _______ _______ _____ _____    ______ ____
ROOT
ATOM      1  O   UNL     1      -3.527   8.657 -11.584  0.00  0.00    +0.000 OA
ATOM      2  C   UNL     1      -2.692   8.019 -10.587  0.00  0.00    +0.000 C 
ATOM      3  C   UNL     1      -4.015   7.442 -12.204  0.00  0.00    +0.000 C 
ATOM      4  C   UNL     1      -1.769   7.166 -11.466  0.00  0.00    +0.000 C 
ATOM      5  C   UNL     1      -3.708   7.129  -9.864  0.00  0.00    +0.000 C 
ATOM      6  C   UNL     1      -2.704   6.758 -12.607  0.00  0.00    +0.000 C 
ATOM      7  C   UNL     1      -4.644   6.723 -11.005  0.00  0.00    +0.000 C 
ATOM      8  H   UNL     1      -1.362   6.298 -10.937  0.00  0.00    +0.000 HD
ATOM      9  H   UNL     1      -0.929   7.722 -11.892  0.00  0.00    +0.000 HD
ATOM     10  H   UNL     1      -4.277   7.692  -9.115  0.00  0.00    +0.000 HD
ATOM     11  H   UNL     1      -3.252   6.266  -9.370  0.00  0.00    +0.000 HD
ATOM     12  H   UNL     1      -2.320   7.159 -13.552  0.00  0.00    +0.000 HD
ATOM     13  H   UNL     1      -2.802   5.673 -12.710  0.00  0.00    +0.000 HD
ATOM     14  H   UNL     1      -4.701   5.638 -11.141  0.00  0.00    +0.000 HD
ATOM     15  H   UNL     1      -5.653   7.095 -10.797  0.00  0.00    +0.000 HD
ENDROOT
BRANCH   3  16
ATOM     16  C   UNL     1      -4.965   7.717 -13.347  0.00  0.00    +0.000 C 
ATOM     17  H   UNL     1      -4.453   8.205 -14.182  0.00  0.00    +0.000 HD
ATOM     18  H   UNL     1      -5.419   6.788 -13.708  0.00  0.00    +0.000 HD
ATOM     19  H   UNL     1      -5.792   8.356 -13.020  0.00  0.00    +0.000 HD
ENDBRANCH   3  16
BRANCH   2  20
ATOM     20  C   UNL     1      -1.980   9.017  -9.703  0.00  0.00    +0.000 C 
ATOM     21  H   UNL     1      -1.236   8.487  -9.095  0.00  0.00    +0.000 HD
BRANCH  20  22
ATOM     22  C   UNL     1      -1.264  10.085 -10.538  0.00  0.00    +0.000 C 
ATOM     23  H   UNL     1      -1.386   9.916 -11.613  0.00  0.00    +0.000 HD
ATOM     24  H   UNL     1      -1.670  11.077 -10.313  0.00  0.00    +0.000 HD
ATOM     25  H   UNL     1      -0.193  10.113 -10.315  0.00  0.00    +0.000 HD
ENDBRANCH  20  22
BRANCH  20  26
ATOM     26  C   UNL     1      -2.955   9.684  -8.725  0.00  0.00    +0.000 C 
ATOM     27  H   UNL     1      -2.497  10.508  -8.170  0.00  0.00    +0.000 HD
ATOM     28  H   UNL     1      -3.292   8.952  -7.982  0.00  0.00    +0.000 HD
ATOM     29  H   UNL     1      -3.848  10.060  -9.233  0.00  0.00    +0.000 HD
ENDBRANCH  20  26
ENDBRANCH   2  20
TORSDOF 4
ENDMDL
MODEL 7
REMARK VINA RESULT:    -4.742     16.803     18.347
REMARK INTER + INTRA:          -5.632
REMARK INTER:                  -5.434
REMARK INTRA:                  -0.198
REMARK UNBOUND:                -0.197
REMARK  Name = 10106
REMARK  4 active torsions:
REMARK  status: ('A' for Active; 'I' for Inactive)
REMARK    1  A    between atoms: C_2  and  C_8
REMARK    2  A    between atoms: C_3  and  C_9
REMARK    3  A    between atoms: C_8  and  C_10
REMARK    4  A    between atoms: C_8  and  C_11
REMARK                            x       y       z     vdW  Elec       q    Type
REMARK                         _______ _______ _______ _____ _____    ______ ____
ROOT
ATOM      1  O   UNL     1     -10.459   5.733  -5.352  0.00  0.00    +0.000 OA
ATOM      2  C   UNL     1      -9.537   6.723  -5.867  0.00  0.00    +0.000 C 
ATOM      3  C   UNL     1      -9.636   4.572  -5.621  0.00  0.00    +0.000 C 
ATOM      4  C   UNL     1      -9.333   6.228  -7.304  0.00  0.00    +0.000 C 
ATOM      5  C   UNL     1      -8.287   6.441  -5.026  0.00  0.00    +0.000 C 
ATOM      6  C   UNL     1      -9.401   4.709  -7.129  0.00  0.00    +0.000 C 
ATOM      7  C   UNL     1      -8.358   4.923  -4.850  0.00  0.00    +0.000 C 
ATOM      8  H   UNL     1      -8.377   6.549  -7.733  0.00  0.00    +0.000 HD
ATOM      9  H   UNL     1     -10.127   6.531  -7.991  0.00  0.00    +0.000 HD
ATOM     10  H   UNL     1      -8.347   6.921  -4.042  0.00  0.00    +0.000 HD
ATOM     11  H   UNL     1      -7.360   6.764  -5.508  0.00  0.00    +0.000 HD
ATOM     12  H   UNL     1     -10.250   4.316  -7.702  0.00  0.00    +0.000 HD
ATOM     13  H   UNL     1      -8.495   4.199  -7.469  0.00  0.00    +0.000 HD
ATOM     14  H   UNL     1      -7.472   4.410  -5.237  0.00  0.00    +0.000 HD
ATOM     15  H   UNL     1      -8.454   4.684  -3.785  0.00  0.00    +0.000 HD
ENDROOT
BRANCH   3  16
ATOM     16  C   UNL     1     -10.298   3.282  -5.196  0.00  0.00    +0.000 C 
ATOM     17  H   UNL     1     -10.860   2.832  -6.020  0.00  0.00    +0.000 HD
ATOM     18  H   UNL     1      -9.554   2.560  -4.843  0.00  0.00    +0.000 HD
ATOM     19  H   UNL     1     -10.982   3.453  -4.358  0.00  0.00    +0.000 HD
ENDBRANCH   3  16
BRANCH   2  20
ATOM     20  C   UNL     1     -10.074   8.130  -5.753  0.00  0.00    +0.000 C 
ATOM     21  H   UNL     1      -9.383   8.728  -5.144  0.00  0.00    +0.000 HD
BRANCH  20  22
ATOM     22  C   UNL     1     -10.207   8.786  -7.133  0.00  0.00    +0.000 C 
ATOM     23  H   UNL     1      -9.478   9.589  -7.277  0.00  0.00    +0.000 HD
ATOM     24  H   UNL     1     -10.041   8.045  -7.923  0.00  0.00    +0.000 HD
ATOM     25  H   UNL     1     -11.209   9.202  -7.281  0.00  0.00    +0.000 HD
ENDBRANCH  20  22
BRANCH  20  26
ATOM     26  C   UNL     1     -11.427   8.150  -5.032  0.00  0.00    +0.000 C 
ATOM     27  H   UNL     1     -11.885   7.159  -4.965  0.00  0.00    +0.000 HD
ATOM     28  H   UNL     1     -12.131   8.786  -5.583  0.00  0.00    +0.000 HD
ATOM     29  H   UNL     1     -11.344   8.563  -4.022  0.00  0.00    +0.000 HD
ENDBRANCH  20  26
ENDBRANCH   2  20
TORSDOF 4
ENDMDL
MODEL 8
REMARK VINA RESULT:    -4.664     16.764     18.280
REMARK INTER + INTRA:          -5.543
REMARK INTER:                  -5.351
REMARK INTRA:                  -0.191
REMARK UNBOUND:                -0.197
REMARK  Name = 10106
REMARK  4 active torsions:
REMARK  status: ('A' for Active; 'I' for Inactive)
REMARK    1  A    between atoms: C_2  and  C_8
REMARK    2  A    between atoms: C_3  and  C_9
REMARK    3  A    between atoms: C_8  and  C_10
REMARK    4  A    between atoms: C_8  and  C_11
REMARK                            x       y       z     vdW  Elec       q    Type
REMARK                         _______ _______ _______ _____ _____    ______ ____
ROOT
ATOM      1  O   UNL     1      -9.052   5.380  -6.863  0.00  0.00    +0.000 OA
ATOM      2  C   UNL     1      -9.433   6.305  -5.816  0.00  0.00    +0.000 C 
ATOM      3  C   UNL     1      -9.113   4.175  -6.062  0.00  0.00    +0.000 C 
ATOM      4  C   UNL     1      -8.363   6.019  -4.755  0.00  0.00    +0.000 C 
ATOM      5  C   UNL     1     -10.783   5.726  -5.377  0.00  0.00    +0.000 C 
ATOM      6  C   UNL     1      -8.138   4.515  -4.929  0.00  0.00    +0.000 C 
ATOM      7  C   UNL     1     -10.558   4.224  -5.552  0.00  0.00    +0.000 C 
ATOM      8  H   UNL     1      -8.691   6.271  -3.742  0.00  0.00    +0.000 HD
ATOM      9  H   UNL     1      -7.415   6.532  -4.938  0.00  0.00    +0.000 HD
ATOM     10  H   UNL     1     -11.595   6.049  -6.040  0.00  0.00    +0.000 HD
ATOM     11  H   UNL     1     -11.054   5.992  -4.351  0.00  0.00    +0.000 HD
ATOM     12  H   UNL     1      -7.099   4.337  -5.230  0.00  0.00    +0.000 HD
ATOM     13  H   UNL     1      -8.331   3.947  -4.014  0.00  0.00    +0.000 HD
ATOM     14  H   UNL     1     -10.702   3.662  -4.624  0.00  0.00    +0.000 HD
ATOM     15  H   UNL     1     -11.260   3.835  -6.299  0.00  0.00    +0.000 HD
ENDROOT
BRANCH   3  16
ATOM     16  C   UNL     1      -8.761   2.936  -6.852  0.00  0.00    +0.000 C 
ATOM     17  H   UNL     1      -9.644   2.506  -7.334  0.00  0.00    +0.000 HD
ATOM     18  H   UNL     1      -8.017   3.164  -7.622  0.00  0.00    +0.000 HD
ATOM     19  H   UNL     1      -8.310   2.176  -6.205  0.00  0.00    +0.000 HD
ENDBRANCH   3  16
BRANCH   2  20
ATOM     20  C   UNL     1      -9.483   7.736  -6.296  0.00  0.00    +0.000 C 
ATOM     21  H   UNL     1      -8.517   8.215  -6.089  0.00  0.00    +0.000 HD
BRANCH  20  22
ATOM     22  C   UNL     1      -9.754   7.807  -7.803  0.00  0.00    +0.000 C 
ATOM     23  H   UNL     1      -8.828   7.823  -8.386  0.00  0.00    +0.000 HD
ATOM     24  H   UNL     1     -10.331   6.933  -8.126  0.00  0.00    +0.000 HD
ATOM     25  H   UNL     1     -10.337   8.696  -8.061  0.00  0.00    +0.000 HD
ENDBRANCH  20  22
BRANCH  20  26
ATOM     26  C   UNL     1     -10.545   8.540  -5.535  0.00  0.00    +0.000 C 
ATOM     27  H   UNL     1     -10.122   9.391  -4.992  0.00  0.00    +0.000 HD
ATOM     28  H   UNL     1     -11.029   7.899  -4.789  0.00  0.00    +0.000 HD
ATOM     29  H   UNL     1     -11.330   8.908  -6.202  0.00  0.00    +0.000 HD
ENDBRANCH  20  26
ENDBRANCH   2  20
TORSDOF 4
ENDMDL
MODEL 9
REMARK VINA RESULT:    -4.660     15.091     17.196
REMARK INTER + INTRA:          -5.539
REMARK INTER:                  -5.345
REMARK INTRA:                  -0.194
REMARK UNBOUND:                -0.197
REMARK  Name = 10106
REMARK  4 active torsions:
REMARK  status: ('A' for Active; 'I' for Inactive)
REMARK    1  A    between atoms: C_2  and  C_8
REMARK    2  A    between atoms: C_3  and  C_9
REMARK    3  A    between atoms: C_8  and  C_10
REMARK    4  A    between atoms: C_8  and  C_11
REMARK                            x       y       z     vdW  Elec       q    Type
REMARK                         _______ _______ _______ _____ _____    ______ ____
ROOT
ATOM      1  O   UNL     1      -2.241   8.972 -11.118  0.00  0.00    +0.000 OA
ATOM      2  C   UNL     1      -2.756   7.640 -10.874  0.00  0.00    +0.000 C 
ATOM      3  C   UNL     1      -2.184   8.874 -12.562  0.00  0.00    +0.000 C 
ATOM      4  C   UNL     1      -1.690   6.774 -11.555  0.00  0.00    +0.000 C 
ATOM      5  C   UNL     1      -4.042   7.655 -11.708  0.00  0.00    +0.000 C 
ATOM      6  C   UNL     1      -1.287   7.645 -12.747  0.00  0.00    +0.000 C 
ATOM      7  C   UNL     1      -3.639   8.527 -12.899  0.00  0.00    +0.000 C 
ATOM      8  H   UNL     1      -2.074   5.798 -11.870  0.00  0.00    +0.000 HD
ATOM      9  H   UNL     1      -0.803   6.602 -10.940  0.00  0.00    +0.000 HD
ATOM     10  H   UNL     1      -4.866   8.137 -11.170  0.00  0.00    +0.000 HD
ATOM     11  H   UNL     1      -4.370   6.657 -12.013  0.00  0.00    +0.000 HD
ATOM     12  H   UNL     1      -0.227   7.909 -12.662  0.00  0.00    +0.000 HD
ATOM     13  H   UNL     1      -1.439   7.146 -13.710  0.00  0.00    +0.000 HD
ATOM     14  H   UNL     1      -3.742   8.010 -13.858  0.00  0.00    +0.000 HD
ATOM     15  H   UNL     1      -4.269   9.422 -12.923  0.00  0.00    +0.000 HD
ENDROOT
BRANCH   3  16
ATOM     16  C   UNL     1      -1.669  10.139 -13.208  0.00  0.00    +0.000 C 
ATOM     17  H   UNL     1      -0.576  10.141 -13.264  0.00  0.00    +0.000 HD
ATOM     18  H   UNL     1      -2.072  10.253 -14.219  0.00  0.00    +0.000 HD
ATOM     19  H   UNL     1      -1.992  11.022 -12.646  0.00  0.00    +0.000 HD
ENDBRANCH   3  16
BRANCH   2  20
ATOM     20  C   UNL     1      -2.957   7.357  -9.404  0.00  0.00    +0.000 C 
ATOM     21  H   UNL     1      -2.146   6.706  -9.052  0.00  0.00    +0.000 HD
BRANCH  20  22
ATOM     22  C   UNL     1      -2.941   8.652  -8.582  0.00  0.00    +0.000 C 
ATOM     23  H   UNL     1      -2.689   9.523  -9.195  0.00  0.00    +0.000 HD
ATOM     24  H   UNL     1      -3.927   8.833  -8.141  0.00  0.00    +0.000 HD
ATOM     25  H   UNL     1      -2.221   8.592  -7.760  0.00  0.00    +0.000 HD
ENDBRANCH  20  22
BRANCH  20  26
ATOM     26  C   UNL     1      -4.268   6.599  -9.160  0.00  0.00    +0.000 C 
ATOM     27  H   UNL     1      -4.670   6.763  -8.155  0.00  0.00    +0.000 HD
ATOM     28  H   UNL     1      -4.096   5.521  -9.259  0.00  0.00    +0.000 HD
ATOM     29  H   UNL     1      -5.036   6.871  -9.890  0.00  0.00    +0.000 HD
ENDBRANCH  20  26
ENDBRANCH   2  20
TORSDOF 4
ENDMDL
MODEL 10
REMARK VINA RESULT:    -4.627     28.444     29.242
REMARK INTER + INTRA:          -5.500
REMARK INTER:                  -5.303
REMARK INTRA:                  -0.197
REMARK UNBOUND:                -0.197
REMARK  Name = 10106
REMARK  4 active torsions:
REMARK  status: ('A' for Active; 'I' for Inactive)
REMARK    1  A    between atoms: C_2  and  C_8
REMARK    2  A    between atoms: C_3  and  C_9
REMARK    3  A    between atoms: C_8  and  C_10
REMARK    4  A    between atoms: C_8  and  C_11
REMARK                            x       y       z     vdW  Elec       q    Type
REMARK                         _______ _______ _______ _____ _____    ______ ____
ROOT
ATOM      1  O   UNL     1     -20.225  -3.328   5.818  0.00  0.00    +0.000 OA
ATOM      2  C   UNL     1     -20.892  -3.795   4.620  0.00  0.00    +0.000 C 
ATOM      3  C   UNL     1     -21.127  -2.230   6.102  0.00  0.00    +0.000 C 
ATOM      4  C   UNL     1     -20.877  -2.531   3.753  0.00  0.00    +0.000 C 
ATOM      5  C   UNL     1     -22.307  -4.063   5.145  0.00  0.00    +0.000 C 
ATOM      6  C   UNL     1     -21.044  -1.426   4.799  0.00  0.00    +0.000 C 
ATOM      7  C   UNL     1     -22.472  -2.959   6.192  0.00  0.00    +0.000 C 
ATOM      8  H   UNL     1     -21.681  -2.516   3.009  0.00  0.00    +0.000 HD
ATOM      9  H   UNL     1     -19.933  -2.368   3.229  0.00  0.00    +0.000 HD
ATOM     10  H   UNL     1     -22.377  -5.040   5.637  0.00  0.00    +0.000 HD
ATOM     11  H   UNL     1     -23.072  -4.017   4.365  0.00  0.00    +0.000 HD
ATOM     12  H   UNL     1     -20.160  -0.778   4.786  0.00  0.00    +0.000 HD
ATOM     13  H   UNL     1     -21.927  -0.803   4.624  0.00  0.00    +0.000 HD
ATOM     14  H   UNL     1     -23.326  -2.306   5.988  0.00  0.00    +0.000 HD
ATOM     15  H   UNL     1     -22.617  -3.413   7.179  0.00  0.00    +0.000 HD
ENDROOT
BRANCH   3  16
ATOM     16  C   UNL     1     -20.736  -1.466   7.345  0.00  0.00    +0.000 C 
ATOM     17  H   UNL     1     -19.891  -0.797   7.153  0.00  0.00    +0.000 HD
ATOM     18  H   UNL     1     -21.576  -0.872   7.718  0.00  0.00    +0.000 HD
ATOM     19  H   UNL     1     -20.461  -2.153   8.154  0.00  0.00    +0.000 HD
ENDBRANCH   3  16
BRANCH   2  20
ATOM     20  C   UNL     1     -20.207  -4.993   4.005  0.00  0.00    +0.000 C 
ATOM     21  H   UNL     1     -20.896  -5.847   4.024  0.00  0.00    +0.000 HD
BRANCH  20  22
ATOM     22  C   UNL     1     -19.806  -4.715   2.551  0.00  0.00    +0.000 C 
ATOM     23  H   UNL     1     -19.900  -5.607   1.923  0.00  0.00    +0.000 HD
ATOM     24  H   UNL     1     -20.451  -3.940   2.122  0.00  0.00    +0.000 HD
ATOM     25  H   UNL     1     -18.774  -4.355   2.485  0.00  0.00    +0.000 HD
ENDBRANCH  20  22
BRANCH  20  26
ATOM     26  C   UNL     1     -18.973  -5.404   4.818  0.00  0.00    +0.000 C 
ATOM     27  H   UNL     1     -18.141  -4.703   4.706  0.00  0.00    +0.000 HD
ATOM     28  H   UNL     1     -18.612  -6.380   4.475  0.00  0.00    +0.000 HD
ATOM     29  H   UNL     1     -19.203  -5.503   5.883  0.00  0.00    +0.000 HD
ENDBRANCH  20  26
ENDBRANCH   2  20
TORSDOF 4
ENDMDL
