MODEL 1
REMARK VINA RESULT:    -5.439      0.000      0.000
REMARK INTER + INTRA:          -6.191
REMARK INTER:                  -6.070
REMARK INTRA:                  -0.120
REMARK UNBOUND:                -0.116
REMARK  Name = 637511
REMARK  2 active torsions:
REMARK  status: ('A' for Active; 'I' for Inactive)
REMARK    1  A    between atoms: C_2  and  C_7
REMARK    2  A    between atoms: C_9  and  C_10
REMARK                            x       y       z     vdW  Elec       q    Type
REMARK                         _______ _______ _______ _____ _____    ______ ____
ROOT
ATOM      1  C   UNL     1      -1.714   8.667 -11.008  0.00  0.00    +0.000 A 
ATOM      2  C   UNL     1      -2.154   7.349 -11.131  0.00  0.00    +0.000 A 
ATOM      3  C   UNL     1      -2.044   9.408  -9.873  0.00  0.00    +0.000 A 
ATOM      4  C   UNL     1      -2.924   6.773 -10.121  0.00  0.00    +0.000 A 
ATOM      5  C   UNL     1      -2.813   8.832  -8.862  0.00  0.00    +0.000 A 
ATOM      6  C   UNL     1      -3.252   7.514  -8.985  0.00  0.00    +0.000 A 
ATOM      7  H   UNL     1      -1.938   6.741 -12.005  0.00  0.00    +0.000 HD
ATOM      8  H   UNL     1      -1.708  10.437  -9.757  0.00  0.00    +0.000 HD
ATOM      9  H   UNL     1      -3.270   5.748 -10.218  0.00  0.00    +0.000 HD
ATOM     10  H   UNL     1      -3.069   9.409  -7.978  0.00  0.00    +0.000 HD
ATOM     11  H   UNL     1      -3.852   7.066  -8.198  0.00  0.00    +0.000 HD
ENDROOT
BRANCH   1  12
ATOM     12  C   UNL     1      -0.911   9.268 -12.061  0.00  0.00    +0.000 C 
ATOM     13  C   UNL     1      -0.366   8.604 -13.103  0.00  0.00    +0.000 C 
ATOM     14  H   UNL     1      -0.743  10.339 -11.969  0.00  0.00    +0.000 HD
ATOM     15  H   UNL     1      -0.462   7.538 -13.261  0.00  0.00    +0.000 HD
BRANCH  13  17
ATOM     16  O   UNL     1       0.627   8.920 -15.227  0.00  0.00    +0.000 OA
ATOM     17  C   UNL     1       0.437   9.349 -14.095  0.00  0.00    +0.000 C 
ATOM     18  H   UNL     1       0.856  10.312 -13.761  0.00  0.00    +0.000 HD
ENDBRANCH  13  17
ENDBRANCH   1  12
TORSDOF 2
ENDMDL
MODEL 2
REMARK VINA RESULT:    -5.191     13.378     14.612
REMARK INTER + INTRA:          -5.914
REMARK INTER:                  -5.797
REMARK INTRA:                  -0.117
REMARK UNBOUND:                -0.116
REMARK  Name = 637511
REMARK  2 active torsions:
REMARK  status: ('A' for Active; 'I' for Inactive)
REMARK    1  A    between atoms: C_2  and  C_7
REMARK    2  A    between atoms: C_9  and  C_10
REMARK                            x       y       z     vdW  Elec       q    Type
REMARK                         _______ _______ _______ _____ _____    ______ ____
ROOT
ATOM      1  C   UNL     1       4.756   9.015   1.596  0.00  0.00    +0.000 A 
ATOM      2  C   UNL     1       4.117   8.893   2.829  0.00  0.00    +0.000 A 
ATOM      3  C   UNL     1       5.974   8.372   1.375  0.00  0.00    +0.000 A 
ATOM      4  C   UNL     1       4.695   8.129   3.843  0.00  0.00    +0.000 A 
ATOM      5  C   UNL     1       6.552   7.607   2.388  0.00  0.00    +0.000 A 
ATOM      6  C   UNL     1       5.913   7.485   3.622  0.00  0.00    +0.000 A 
ATOM      7  H   UNL     1       3.177   9.391   3.052  0.00  0.00    +0.000 HD
ATOM      8  H   UNL     1       6.486   8.453   0.419  0.00  0.00    +0.000 HD
ATOM      9  H   UNL     1       4.200   8.037   4.805  0.00  0.00    +0.000 HD
ATOM     10  H   UNL     1       7.500   7.106   2.216  0.00  0.00    +0.000 HD
ATOM     11  H   UNL     1       6.364   6.890   4.410  0.00  0.00    +0.000 HD
ENDROOT
BRANCH   1  12
ATOM     12  C   UNL     1       4.152   9.812   0.539  0.00  0.00    +0.000 C 
ATOM     13  C   UNL     1       3.781  11.106   0.651  0.00  0.00    +0.000 C 
ATOM     14  H   UNL     1       3.987   9.294  -0.403  0.00  0.00    +0.000 HD
ATOM     15  H   UNL     1       3.886  11.691   1.554  0.00  0.00    +0.000 HD
BRANCH  13  17
ATOM     16  O   UNL     1       3.207  11.305  -1.636  0.00  0.00    +0.000 OA
ATOM     17  C   UNL     1       3.169  11.786  -0.509  0.00  0.00    +0.000 C 
ATOM     18  H   UNL     1       2.675  12.749  -0.306  0.00  0.00    +0.000 HD
ENDBRANCH  13  17
ENDBRANCH   1  12
TORSDOF 2
ENDMDL
MODEL 3
REMARK VINA RESULT:    -4.976     14.162     15.288
REMARK INTER + INTRA:          -5.674
REMARK INTER:                  -5.558
REMARK INTRA:                  -0.116
REMARK UNBOUND:                -0.116
REMARK  Name = 637511
REMARK  2 active torsions:
REMARK  status: ('A' for Active; 'I' for Inactive)
REMARK    1  A    between atoms: C_2  and  C_7
REMARK    2  A    between atoms: C_9  and  C_10
REMARK                            x       y       z     vdW  Elec       q    Type
REMARK                         _______ _______ _______ _____ _____    ______ ____
ROOT
ATOM      1  C   UNL     1       7.218   8.983   0.496  0.00  0.00    +0.000 A 
ATOM      2  C   UNL     1       7.046   8.250  -0.679  0.00  0.00    +0.000 A 
ATOM      3  C   UNL     1       8.348   9.783   0.659  0.00  0.00    +0.000 A 
ATOM      4  C   UNL     1       8.006   8.317  -1.689  0.00  0.00    +0.000 A 
ATOM      5  C   UNL     1       9.307   9.851  -0.352  0.00  0.00    +0.000 A 
ATOM      6  C   UNL     1       9.136   9.119  -1.526  0.00  0.00    +0.000 A 
ATOM      7  H   UNL     1       6.192   7.599  -0.842  0.00  0.00    +0.000 HD
ATOM      8  H   UNL     1       8.498  10.364   1.567  0.00  0.00    +0.000 HD
ATOM      9  H   UNL     1       7.876   7.743  -2.602  0.00  0.00    +0.000 HD
ATOM     10  H   UNL     1      10.187  10.475  -0.224  0.00  0.00    +0.000 HD
ATOM     11  H   UNL     1       9.883   9.171  -2.312  0.00  0.00    +0.000 HD
ENDROOT
BRANCH   1  12
ATOM     12  C   UNL     1       6.217   8.913   1.549  0.00  0.00    +0.000 C 
ATOM     13  C   UNL     1       4.883   8.840   1.356  0.00  0.00    +0.000 C 
ATOM     14  H   UNL     1       6.605   8.934   2.565  0.00  0.00    +0.000 HD
ATOM     15  H   UNL     1       4.410   8.837   0.383  0.00  0.00    +0.000 HD
BRANCH  13  17
ATOM     16  O   UNL     1       2.991   9.496   2.616  0.00  0.00    +0.000 OA
ATOM     17  C   UNL     1       3.984   8.785   2.528  0.00  0.00    +0.000 C 
ATOM     18  H   UNL     1       4.255   8.066   3.318  0.00  0.00    +0.000 HD
ENDBRANCH  13  17
ENDBRANCH   1  12
TORSDOF 2
ENDMDL
MODEL 4
REMARK VINA RESULT:    -4.954      8.679      8.945
REMARK INTER + INTRA:          -5.649
REMARK INTER:                  -5.535
REMARK INTRA:                  -0.114
REMARK UNBOUND:                -0.116
REMARK  Name = 637511
REMARK  2 active torsions:
REMARK  status: ('A' for Active; 'I' for Inactive)
REMARK    1  A    between atoms: C_2  and  C_7
REMARK    2  A    between atoms: C_9  and  C_10
REMARK                            x       y       z     vdW  Elec       q    Type
REMARK                         _______ _______ _______ _____ _____    ______ ____
ROOT
ATOM      1  C   UNL     1      -1.697  -0.449 -11.633  0.00  0.00    +0.000 A 
ATOM      2  C   UNL     1      -2.850  -0.382 -12.414  0.00  0.00    +0.000 A 
ATOM      3  C   UNL     1      -1.799  -0.519 -10.244  0.00  0.00    +0.000 A 
ATOM      4  C   UNL     1      -4.106  -0.382 -11.807  0.00  0.00    +0.000 A 
ATOM      5  C   UNL     1      -3.054  -0.520  -9.635  0.00  0.00    +0.000 A 
ATOM      6  C   UNL     1      -4.208  -0.452 -10.417  0.00  0.00    +0.000 A 
ATOM      7  H   UNL     1      -2.819  -0.307 -13.497  0.00  0.00    +0.000 HD
ATOM      8  H   UNL     1      -0.911  -0.575  -9.618  0.00  0.00    +0.000 HD
ATOM      9  H   UNL     1      -5.005  -0.325 -12.414  0.00  0.00    +0.000 HD
ATOM     10  H   UNL     1      -3.134  -0.575  -8.554  0.00  0.00    +0.000 HD
ATOM     11  H   UNL     1      -5.185  -0.453  -9.943  0.00  0.00    +0.000 HD
ENDROOT
BRANCH   1  12
ATOM     12  C   UNL     1      -0.388  -0.449 -12.267  0.00  0.00    +0.000 C 
ATOM     13  C   UNL     1       0.548   0.515 -12.128  0.00  0.00    +0.000 C 
ATOM     14  H   UNL     1      -0.178  -1.301 -12.910  0.00  0.00    +0.000 HD
ATOM     15  H   UNL     1       0.416   1.406 -11.529  0.00  0.00    +0.000 HD
BRANCH  13  17
ATOM     16  O   UNL     1       2.322  -0.709 -13.102  0.00  0.00    +0.000 OA
ATOM     17  C   UNL     1       1.833   0.384 -12.844  0.00  0.00    +0.000 C 
ATOM     18  H   UNL     1       2.329   1.325 -13.135  0.00  0.00    +0.000 HD
ENDBRANCH  13  17
ENDBRANCH   1  12
TORSDOF 2
ENDMDL
MODEL 5
REMARK VINA RESULT:    -4.931     18.506     20.650
REMARK INTER + INTRA:          -5.623
REMARK INTER:                  -5.512
REMARK INTRA:                  -0.111
REMARK UNBOUND:                -0.116
REMARK  Name = 637511
REMARK  2 active torsions:
REMARK  status: ('A' for Active; 'I' for Inactive)
REMARK    1  A    between atoms: C_2  and  C_7
REMARK    2  A    between atoms: C_9  and  C_10
REMARK                            x       y       z     vdW  Elec       q    Type
REMARK                         _______ _______ _______ _____ _____    ______ ____
ROOT
ATOM      1  C   UNL     1      -8.052  11.530   7.101  0.00  0.00    +0.000 A 
ATOM      2  C   UNL     1      -7.372  12.745   7.172  0.00  0.00    +0.000 A 
ATOM      3  C   UNL     1      -8.197  10.883   5.874  0.00  0.00    +0.000 A 
ATOM      4  C   UNL     1      -6.837  13.315   6.016  0.00  0.00    +0.000 A 
ATOM      5  C   UNL     1      -7.661  11.451   4.718  0.00  0.00    +0.000 A 
ATOM      6  C   UNL     1      -6.981  12.667   4.789  0.00  0.00    +0.000 A 
ATOM      7  H   UNL     1      -7.252  13.293   8.102  0.00  0.00    +0.000 HD
ATOM      8  H   UNL     1      -8.722   9.933   5.798  0.00  0.00    +0.000 HD
ATOM      9  H   UNL     1      -6.311  14.263   6.070  0.00  0.00    +0.000 HD
ATOM     10  H   UNL     1      -7.773  10.947   3.762  0.00  0.00    +0.000 HD
ATOM     11  H   UNL     1      -6.565  13.109   3.889  0.00  0.00    +0.000 HD
ENDROOT
BRANCH   1  12
ATOM     12  C   UNL     1      -8.610  10.936   8.306  0.00  0.00    +0.000 C 
ATOM     13  C   UNL     1      -8.216   9.767   8.856  0.00  0.00    +0.000 C 
ATOM     14  H   UNL     1      -9.417  11.496   8.774  0.00  0.00    +0.000 HD
ATOM     15  H   UNL     1      -7.440   9.135   8.446  0.00  0.00    +0.000 HD
BRANCH  13  17
ATOM     16  O   UNL     1      -8.617   8.195  10.578  0.00  0.00    +0.000 OA
ATOM     17  C   UNL     1      -8.884   9.283  10.082  0.00  0.00    +0.000 C 
ATOM     18  H   UNL     1      -9.636   9.955  10.527  0.00  0.00    +0.000 HD
ENDBRANCH  13  17
ENDBRANCH   1  12
TORSDOF 2
ENDMDL
MODEL 6
REMARK VINA RESULT:    -4.912     26.961     27.681
REMARK INTER + INTRA:          -5.602
REMARK INTER:                  -5.489
REMARK INTRA:                  -0.114
REMARK UNBOUND:                -0.116
REMARK  Name = 637511
REMARK  2 active torsions:
REMARK  status: ('A' for Active; 'I' for Inactive)
REMARK    1  A    between atoms: C_2  and  C_7
REMARK    2  A    between atoms: C_9  and  C_10
REMARK                            x       y       z     vdW  Elec       q    Type
REMARK                         _______ _______ _______ _____ _____    ______ ____
ROOT
ATOM      1  C   UNL     1     -20.789  -2.616   4.911  0.00  0.00    +0.000 A 
ATOM      2  C   UNL     1     -20.697  -1.258   4.606  0.00  0.00    +0.000 A 
ATOM      3  C   UNL     1     -20.804  -3.031   6.242  0.00  0.00    +0.000 A 
ATOM      4  C   UNL     1     -20.619  -0.315   5.632  0.00  0.00    +0.000 A 
ATOM      5  C   UNL     1     -20.728  -2.089   7.269  0.00  0.00    +0.000 A 
ATOM      6  C   UNL     1     -20.636  -0.732   6.963  0.00  0.00    +0.000 A 
ATOM      7  H   UNL     1     -20.662  -0.890   3.585  0.00  0.00    +0.000 HD
ATOM      8  H   UNL     1     -20.878  -4.086   6.500  0.00  0.00    +0.000 HD
ATOM      9  H   UNL     1     -20.543   0.742   5.395  0.00  0.00    +0.000 HD
ATOM     10  H   UNL     1     -20.740  -2.413   8.305  0.00  0.00    +0.000 HD
ATOM     11  H   UNL     1     -20.575   0.001   7.763  0.00  0.00    +0.000 HD
ENDROOT
BRANCH   1  12
ATOM     12  C   UNL     1     -20.870  -3.598   3.841  0.00  0.00    +0.000 C 
ATOM     13  C   UNL     1     -20.107  -4.708   3.740  0.00  0.00    +0.000 C 
ATOM     14  H   UNL     1     -21.605  -3.389   3.068  0.00  0.00    +0.000 HD
ATOM     15  H   UNL     1     -19.337  -4.982   4.449  0.00  0.00    +0.000 HD
BRANCH  13  17
ATOM     16  O   UNL     1     -19.487  -6.492   2.316  0.00  0.00    +0.000 OA
ATOM     17  C   UNL     1     -20.296  -5.613   2.588  0.00  0.00    +0.000 C 
ATOM     18  H   UNL     1     -21.205  -5.454   1.985  0.00  0.00    +0.000 HD
ENDBRANCH  13  17
ENDBRANCH   1  12
TORSDOF 2
ENDMDL
MODEL 7
REMARK VINA RESULT:    -4.881     26.897     28.107
REMARK INTER + INTRA:          -5.567
REMARK INTER:                  -5.457
REMARK INTRA:                  -0.110
REMARK UNBOUND:                -0.116
REMARK  Name = 637511
REMARK  2 active torsions:
REMARK  status: ('A' for Active; 'I' for Inactive)
REMARK    1  A    between atoms: C_2  and  C_7
REMARK    2  A    between atoms: C_9  and  C_10
REMARK                            x       y       z     vdW  Elec       q    Type
REMARK                         _______ _______ _______ _____ _____    ______ ____
ROOT
ATOM      1  C   UNL     1     -20.360  -3.821   4.967  0.00  0.00    +0.000 A 
ATOM      2  C   UNL     1     -19.449  -4.875   5.043  0.00  0.00    +0.000 A 
ATOM      3  C   UNL     1     -20.760  -3.335   3.723  0.00  0.00    +0.000 A 
ATOM      4  C   UNL     1     -18.939  -5.443   3.876  0.00  0.00    +0.000 A 
ATOM      5  C   UNL     1     -20.252  -3.903   2.554  0.00  0.00    +0.000 A 
ATOM      6  C   UNL     1     -19.341  -4.957   2.631  0.00  0.00    +0.000 A 
ATOM      7  H   UNL     1     -19.094  -5.273   5.989  0.00  0.00    +0.000 HD
ATOM      8  H   UNL     1     -21.472  -2.516   3.643  0.00  0.00    +0.000 HD
ATOM      9  H   UNL     1     -18.227  -6.260   3.934  0.00  0.00    +0.000 HD
ATOM     10  H   UNL     1     -20.564  -3.525   1.586  0.00  0.00    +0.000 HD
ATOM     11  H   UNL     1     -18.944  -5.398   1.721  0.00  0.00    +0.000 HD
ENDROOT
BRANCH   1  12
ATOM     12  C   UNL     1     -20.892  -3.229   6.185  0.00  0.00    +0.000 C 
ATOM     13  C   UNL     1     -20.653  -1.970   6.611  0.00  0.00    +0.000 C 
ATOM     14  H   UNL     1     -21.520  -3.882   6.787  0.00  0.00    +0.000 HD
ATOM     15  H   UNL     1     -20.023  -1.262   6.089  0.00  0.00    +0.000 HD
BRANCH  13  17
ATOM     16  O   UNL     1     -21.321  -0.320   8.169  0.00  0.00    +0.000 OA
ATOM     17  C   UNL     1     -21.256  -1.509   7.878  0.00  0.00    +0.000 C 
ATOM     18  H   UNL     1     -21.646  -2.292   8.548  0.00  0.00    +0.000 HD
ENDBRANCH  13  17
ENDBRANCH   1  12
TORSDOF 2
ENDMDL
MODEL 8
REMARK VINA RESULT:    -4.621     25.893     26.695
REMARK INTER + INTRA:          -5.277
REMARK INTER:                  -5.162
REMARK INTRA:                  -0.116
REMARK UNBOUND:                -0.116
REMARK  Name = 637511
REMARK  2 active torsions:
REMARK  status: ('A' for Active; 'I' for Inactive)
REMARK    1  A    between atoms: C_2  and  C_7
REMARK    2  A    between atoms: C_9  and  C_10
REMARK                            x       y       z     vdW  Elec       q    Type
REMARK                         _______ _______ _______ _____ _____    ______ ____
ROOT
ATOM      1  C   UNL     1      13.248 -10.054   0.212  0.00  0.00    +0.000 A 
ATOM      2  C   UNL     1      13.659 -10.133  -1.119  0.00  0.00    +0.000 A 
ATOM      3  C   UNL     1      13.628  -8.963   0.994  0.00  0.00    +0.000 A 
ATOM      4  C   UNL     1      14.449  -9.122  -1.667  0.00  0.00    +0.000 A 
ATOM      5  C   UNL     1      14.417  -7.952   0.447  0.00  0.00    +0.000 A 
ATOM      6  C   UNL     1      14.828  -8.031  -0.884  0.00  0.00    +0.000 A 
ATOM      7  H   UNL     1      13.403 -10.971  -1.760  0.00  0.00    +0.000 HD
ATOM      8  H   UNL     1      13.315  -8.883   2.033  0.00  0.00    +0.000 HD
ATOM      9  H   UNL     1      14.773  -9.185  -2.702  0.00  0.00    +0.000 HD
ATOM     10  H   UNL     1      14.712  -7.103   1.056  0.00  0.00    +0.000 HD
ATOM     11  H   UNL     1      15.443  -7.244  -1.310  0.00  0.00    +0.000 HD
ENDROOT
BRANCH   1  12
ATOM     12  C   UNL     1      12.424 -11.107   0.783  0.00  0.00    +0.000 C 
ATOM     13  C   UNL     1      11.367 -10.916   1.602  0.00  0.00    +0.000 C 
ATOM     14  H   UNL     1      12.713 -12.123   0.521  0.00  0.00    +0.000 HD
ATOM     15  H   UNL     1      11.024  -9.945   1.933  0.00  0.00    +0.000 HD
BRANCH  13  17
ATOM     16  O   UNL     1       9.702 -12.592   1.490  0.00  0.00    +0.000 OA
ATOM     17  C   UNL     1      10.628 -12.087   2.114  0.00  0.00    +0.000 C 
ATOM     18  H   UNL     1      10.955 -12.484   3.089  0.00  0.00    +0.000 HD
ENDBRANCH  13  17
ENDBRANCH   1  12
TORSDOF 2
ENDMDL
MODEL 9
REMARK VINA RESULT:    -4.617      2.322      2.421
REMARK INTER + INTRA:          -5.273
REMARK INTER:                  -5.158
REMARK INTRA:                  -0.114
REMARK UNBOUND:                -0.116
REMARK  Name = 637511
REMARK  2 active torsions:
REMARK  status: ('A' for Active; 'I' for Inactive)
REMARK    1  A    between atoms: C_2  and  C_7
REMARK    2  A    between atoms: C_9  and  C_10
REMARK                            x       y       z     vdW  Elec       q    Type
REMARK                         _______ _______ _______ _____ _____    ______ ____
ROOT
ATOM      1  C   UNL     1      -3.038   8.027 -11.190  0.00  0.00    +0.000 A 
ATOM      2  C   UNL     1      -3.345   6.918 -10.402  0.00  0.00    +0.000 A 
ATOM      3  C   UNL     1      -2.746   9.251 -10.588  0.00  0.00    +0.000 A 
ATOM      4  C   UNL     1      -3.362   7.034  -9.012  0.00  0.00    +0.000 A 
ATOM      5  C   UNL     1      -2.762   9.367  -9.198  0.00  0.00    +0.000 A 
ATOM      6  C   UNL     1      -3.069   8.258  -8.410  0.00  0.00    +0.000 A 
ATOM      7  H   UNL     1      -3.597   5.951 -10.827  0.00  0.00    +0.000 HD
ATOM      8  H   UNL     1      -2.501  10.126 -11.187  0.00  0.00    +0.000 HD
ATOM      9  H   UNL     1      -3.606   6.172  -8.397  0.00  0.00    +0.000 HD
ATOM     10  H   UNL     1      -2.534  10.320  -8.730  0.00  0.00    +0.000 HD
ATOM     11  H   UNL     1      -3.082   8.349  -7.328  0.00  0.00    +0.000 HD
ENDROOT
BRANCH   1  12
ATOM     12  C   UNL     1      -3.020   7.907 -12.640  0.00  0.00    +0.000 C 
ATOM     13  C   UNL     1      -2.452   6.897 -13.334  0.00  0.00    +0.000 C 
ATOM     14  H   UNL     1      -3.502   8.717 -13.183  0.00  0.00    +0.000 HD
ATOM     15  H   UNL     1      -1.932   6.065 -12.877  0.00  0.00    +0.000 HD
BRANCH  13  17
ATOM     16  O   UNL     1      -2.918   5.957 -15.454  0.00  0.00    +0.000 OA
ATOM     17  C   UNL     1      -2.504   6.914 -14.810  0.00  0.00    +0.000 C 
ATOM     18  H   UNL     1      -2.152   7.835 -15.301  0.00  0.00    +0.000 HD
ENDBRANCH  13  17
ENDBRANCH   1  12
TORSDOF 2
ENDMDL
MODEL 10
REMARK VINA RESULT:    -4.457      3.421      5.429
REMARK INTER + INTRA:          -5.094
REMARK INTER:                  -4.978
REMARK INTRA:                  -0.116
REMARK UNBOUND:                -0.116
REMARK  Name = 637511
REMARK  2 active torsions:
REMARK  status: ('A' for Active; 'I' for Inactive)
REMARK    1  A    between atoms: C_2  and  C_7
REMARK    2  A    between atoms: C_9  and  C_10
REMARK                            x       y       z     vdW  Elec       q    Type
REMARK                         _______ _______ _______ _____ _____    ______ ____
ROOT
ATOM      1  C   UNL     1      -2.253   7.153 -11.779  0.00  0.00    +0.000 A 
ATOM      2  C   UNL     1      -1.065   7.879 -11.865  0.00  0.00    +0.000 A 
ATOM      3  C   UNL     1      -2.933   6.789 -12.941  0.00  0.00    +0.000 A 
ATOM      4  C   UNL     1      -0.558   8.242 -13.113  0.00  0.00    +0.000 A 
ATOM      5  C   UNL     1      -2.425   7.150 -14.189  0.00  0.00    +0.000 A 
ATOM      6  C   UNL     1      -1.238   7.876 -14.275  0.00  0.00    +0.000 A 
ATOM      7  H   UNL     1      -0.513   8.201 -10.987  0.00  0.00    +0.000 HD
ATOM      8  H   UNL     1      -3.859   6.220 -12.894  0.00  0.00    +0.000 HD
ATOM      9  H   UNL     1       0.365   8.811 -13.180  0.00  0.00    +0.000 HD
ATOM     10  H   UNL     1      -2.955   6.865 -15.093  0.00  0.00    +0.000 HD
ATOM     11  H   UNL     1      -0.843   8.158 -15.247  0.00  0.00    +0.000 HD
ENDROOT
BRANCH   1  12
ATOM     12  C   UNL     1      -2.782   6.775 -10.477  0.00  0.00    +0.000 C 
ATOM     13  C   UNL     1      -4.087   6.792 -10.129  0.00  0.00    +0.000 C 
ATOM     14  H   UNL     1      -2.042   6.471  -9.741  0.00  0.00    +0.000 HD
ATOM     15  H   UNL     1      -4.887   7.102 -10.789  0.00  0.00    +0.000 HD
BRANCH  13  17
ATOM     16  O   UNL     1      -5.614   6.020  -8.496  0.00  0.00    +0.000 OA
ATOM     17  C   UNL     1      -4.477   6.389  -8.763  0.00  0.00    +0.000 C 
ATOM     18  H   UNL     1      -3.687   6.436  -7.995  0.00  0.00    +0.000 HD
ENDBRANCH  13  17
ENDBRANCH   1  12
TORSDOF 2
ENDMDL
