MODEL 1
REMARK VINA RESULT:    -4.579      0.000      0.000
REMARK INTER + INTRA:          -6.629
REMARK INTER:                  -6.159
REMARK INTRA:                  -0.470
REMARK UNBOUND:                -0.578
REMARK  Name = 1551246
REMARK  7 active torsions:
REMARK  status: ('A' for Active; 'I' for Inactive)
REMARK    1  A    between atoms: C_2  and  C_3
REMARK    2  A    between atoms: C_2  and  C_4
REMARK    3  A    between atoms: C_3  and  C_5
REMARK    4  A    between atoms: C_4  and  C_7
REMARK    5  A    between atoms: C_6  and  C_8
REMARK    6  A    between atoms: C_6  and  C_9
REMARK    7  A    between atoms: C_10  and  C_11
REMARK                            x       y       z     vdW  Elec       q    Type
REMARK                         _______ _______ _______ _____ _____    ______ ____
ROOT
ATOM      1  C   UNL     1      -2.622   9.787 -10.552  0.00  0.00    +0.000 C 
ATOM      2  H   UNL     1      -3.099  10.701 -10.176  0.00  0.00    +0.000 HD
ATOM      3  H   UNL     1      -3.139   9.567 -11.493  0.00  0.00    +0.000 HD
ENDROOT
BRANCH   1   4
ATOM      4  C   UNL     1      -1.133  10.035 -10.829  0.00  0.00    +0.000 C 
ATOM      5  H   UNL     1      -0.544   9.621 -10.002  0.00  0.00    +0.000 HD
ATOM      6  H   UNL     1      -0.934  11.113 -10.829  0.00  0.00    +0.000 HD
BRANCH   4   7
ATOM      7  C   UNL     1      -0.641   9.421 -12.127  0.00  0.00    +0.000 C 
ATOM      8  C   UNL     1      -0.296  10.125 -13.222  0.00  0.00    +0.000 C 
ATOM      9  H   UNL     1      -0.384  11.208 -13.205  0.00  0.00    +0.000 HD
BRANCH   7  10
ATOM     10  C   UNL     1      -0.514   7.920 -12.124  0.00  0.00    +0.000 C 
ATOM     11  H   UNL     1      -1.419   7.386 -12.427  0.00  0.00    +0.000 HD
ATOM     12  H   UNL     1       0.271   7.611 -12.823  0.00  0.00    +0.000 HD
ATOM     13  H   UNL     1      -0.240   7.563 -11.126  0.00  0.00    +0.000 HD
ENDBRANCH   7  10
BRANCH   8  15
ATOM     14  N   UNL     1       0.597   9.073 -15.404  0.00  0.00    +0.000 NA
ATOM     15  C   UNL     1       0.195   9.542 -14.421  0.00  0.00    +0.000 C 
ENDBRANCH   8  15
ENDBRANCH   4   7
ENDBRANCH   1   4
BRANCH   1  16
ATOM     16  C   UNL     1      -2.846   8.686  -9.552  0.00  0.00    +0.000 C 
ATOM     17  C   UNL     1      -3.429   7.489  -9.749  0.00  0.00    +0.000 C 
ATOM     18  H   UNL     1      -2.479   8.905  -8.550  0.00  0.00    +0.000 HD
BRANCH  17  19
ATOM     19  C   UNL     1      -3.621   6.431  -8.699  0.00  0.00    +0.000 C 
ATOM     20  H   UNL     1      -3.497   5.435  -9.134  0.00  0.00    +0.000 HD
ATOM     21  H   UNL     1      -2.891   6.556  -7.893  0.00  0.00    +0.000 HD
ATOM     22  H   UNL     1      -4.621   6.482  -8.257  0.00  0.00    +0.000 HD
ENDBRANCH  17  19
BRANCH  17  23
ATOM     23  C   UNL     1      -3.943   7.109 -11.112  0.00  0.00    +0.000 C 
ATOM     24  H   UNL     1      -3.270   7.499 -11.884  0.00  0.00    +0.000 HD
ATOM     25  H   UNL     1      -4.941   7.484 -11.346  0.00  0.00    +0.000 HD
ATOM     26  H   UNL     1      -3.974   6.019 -11.207  0.00  0.00    +0.000 HD
ENDBRANCH  17  23
ENDBRANCH   1  16
TORSDOF 7
ENDMDL
MODEL 2
REMARK VINA RESULT:    -4.508      2.865      4.296
REMARK INTER + INTRA:          -6.535
REMARK INTER:                  -6.336
REMARK INTRA:                  -0.199
REMARK UNBOUND:                -0.578
REMARK  Name = 1551246
REMARK  7 active torsions:
REMARK  status: ('A' for Active; 'I' for Inactive)
REMARK    1  A    between atoms: C_2  and  C_3
REMARK    2  A    between atoms: C_2  and  C_4
REMARK    3  A    between atoms: C_3  and  C_5
REMARK    4  A    between atoms: C_4  and  C_7
REMARK    5  A    between atoms: C_6  and  C_8
REMARK    6  A    between atoms: C_6  and  C_9
REMARK    7  A    between atoms: C_10  and  C_11
REMARK                            x       y       z     vdW  Elec       q    Type
REMARK                         _______ _______ _______ _____ _____    ______ ____
ROOT
ATOM      1  C   UNL     1      -4.965   6.365  -9.398  0.00  0.00    +0.000 C 
ATOM      2  H   UNL     1      -5.530   7.243  -9.738  0.00  0.00    +0.000 HD
ATOM      3  H   UNL     1      -4.795   5.773 -10.304  0.00  0.00    +0.000 HD
ENDROOT
BRANCH   1   4
ATOM      4  C   UNL     1      -3.617   6.794  -8.802  0.00  0.00    +0.000 C 
ATOM      5  H   UNL     1      -3.040   5.897  -8.546  0.00  0.00    +0.000 HD
ATOM      6  H   UNL     1      -3.785   7.325  -7.857  0.00  0.00    +0.000 HD
BRANCH   4   7
ATOM      7  C   UNL     1      -2.783   7.655  -9.733  0.00  0.00    +0.000 C 
ATOM      8  C   UNL     1      -2.415   8.924  -9.475  0.00  0.00    +0.000 C 
ATOM      9  H   UNL     1      -2.739   9.392  -8.550  0.00  0.00    +0.000 HD
BRANCH   7  10
ATOM     10  C   UNL     1      -2.333   6.983 -11.004  0.00  0.00    +0.000 C 
ATOM     11  H   UNL     1      -3.001   6.194 -11.363  0.00  0.00    +0.000 HD
ATOM     12  H   UNL     1      -2.269   7.719 -11.813  0.00  0.00    +0.000 HD
ATOM     13  H   UNL     1      -1.342   6.538 -10.869  0.00  0.00    +0.000 HD
ENDBRANCH   7  10
BRANCH   8  15
ATOM     14  N   UNL     1      -0.941  10.344 -11.048  0.00  0.00    +0.000 NA
ATOM     15  C   UNL     1      -1.606   9.710 -10.340  0.00  0.00    +0.000 C 
ENDBRANCH   8  15
ENDBRANCH   4   7
ENDBRANCH   1   4
BRANCH   1  16
ATOM     16  C   UNL     1      -5.812   5.604  -8.415  0.00  0.00    +0.000 C 
ATOM     17  C   UNL     1      -6.915   4.872  -8.661  0.00  0.00    +0.000 C 
ATOM     18  H   UNL     1      -5.471   5.663  -7.383  0.00  0.00    +0.000 HD
BRANCH  17  19
ATOM     19  C   UNL     1      -7.717   4.134  -7.626  0.00  0.00    +0.000 C 
ATOM     20  H   UNL     1      -7.307   4.311  -6.628  0.00  0.00    +0.000 HD
ATOM     21  H   UNL     1      -8.760   4.466  -7.643  0.00  0.00    +0.000 HD
ATOM     22  H   UNL     1      -7.707   3.054  -7.807  0.00  0.00    +0.000 HD
ENDBRANCH  17  19
BRANCH  17  23
ATOM     23  C   UNL     1      -7.435   4.728 -10.066  0.00  0.00    +0.000 C 
ATOM     24  H   UNL     1      -8.475   5.069 -10.113  0.00  0.00    +0.000 HD
ATOM     25  H   UNL     1      -7.419   3.710 -10.459  0.00  0.00    +0.000 HD
ATOM     26  H   UNL     1      -6.843   5.349 -10.747  0.00  0.00    +0.000 HD
ENDBRANCH  17  23
ENDBRANCH   1  16
TORSDOF 7
ENDMDL
MODEL 3
REMARK VINA RESULT:    -4.283      3.435      5.361
REMARK INTER + INTRA:          -6.237
REMARK INTER:                  -5.960
REMARK INTRA:                  -0.277
REMARK UNBOUND:                -0.578
REMARK  Name = 1551246
REMARK  7 active torsions:
REMARK  status: ('A' for Active; 'I' for Inactive)
REMARK    1  A    between atoms: C_2  and  C_3
REMARK    2  A    between atoms: C_2  and  C_4
REMARK    3  A    between atoms: C_3  and  C_5
REMARK    4  A    between atoms: C_4  and  C_7
REMARK    5  A    between atoms: C_6  and  C_8
REMARK    6  A    between atoms: C_6  and  C_9
REMARK    7  A    between atoms: C_10  and  C_11
REMARK                            x       y       z     vdW  Elec       q    Type
REMARK                         _______ _______ _______ _____ _____    ______ ____
ROOT
ATOM      1  C   UNL     1      -6.460   5.945  -9.110  0.00  0.00    +0.000 C 
ATOM      2  H   UNL     1      -7.087   6.843  -9.032  0.00  0.00    +0.000 HD
ATOM      3  H   UNL     1      -6.558   5.625 -10.154  0.00  0.00    +0.000 HD
ENDROOT
BRANCH   1   4
ATOM      4  C   UNL     1      -4.995   6.289  -8.812  0.00  0.00    +0.000 C 
ATOM      5  H   UNL     1      -4.530   5.443  -8.290  0.00  0.00    +0.000 HD
ATOM      6  H   UNL     1      -4.949   7.134  -8.115  0.00  0.00    +0.000 HD
BRANCH   4   7
ATOM      7  C   UNL     1      -4.176   6.600 -10.051  0.00  0.00    +0.000 C 
ATOM      8  C   UNL     1      -2.834   6.721 -10.069  0.00  0.00    +0.000 C 
ATOM      9  H   UNL     1      -2.280   6.609  -9.142  0.00  0.00    +0.000 HD
BRANCH   7  10
ATOM     10  C   UNL     1      -4.963   6.738 -11.328  0.00  0.00    +0.000 C 
ATOM     11  H   UNL     1      -6.045   6.818 -11.189  0.00  0.00    +0.000 HD
ATOM     12  H   UNL     1      -4.656   7.647 -11.859  0.00  0.00    +0.000 HD
ATOM     13  H   UNL     1      -4.778   5.882 -11.984  0.00  0.00    +0.000 HD
ENDBRANCH   7  10
BRANCH   8  15
ATOM     14  N   UNL     1      -1.447   7.187 -12.196  0.00  0.00    +0.000 NA
ATOM     15  C   UNL     1      -2.074   6.980 -11.242  0.00  0.00    +0.000 C 
ENDBRANCH   8  15
ENDBRANCH   4   7
ENDBRANCH   1   4
BRANCH   1  16
ATOM     16  C   UNL     1      -7.007   4.899  -8.178  0.00  0.00    +0.000 C 
ATOM     17  C   UNL     1      -7.746   5.079  -7.067  0.00  0.00    +0.000 C 
ATOM     18  H   UNL     1      -6.767   3.875  -8.457  0.00  0.00    +0.000 HD
BRANCH  17  19
ATOM     19  C   UNL     1      -8.262   3.983  -6.178  0.00  0.00    +0.000 C 
ATOM     20  H   UNL     1      -8.550   4.387  -5.203  0.00  0.00    +0.000 HD
ATOM     21  H   UNL     1      -9.136   3.503  -6.631  0.00  0.00    +0.000 HD
ATOM     22  H   UNL     1      -7.505   3.211  -6.012  0.00  0.00    +0.000 HD
ENDBRANCH  17  19
BRANCH  17  23
ATOM     23  C   UNL     1      -8.134   6.466  -6.629  0.00  0.00    +0.000 C 
ATOM     24  H   UNL     1      -8.788   6.409  -5.752  0.00  0.00    +0.000 HD
ATOM     25  H   UNL     1      -8.666   7.053  -7.381  0.00  0.00    +0.000 HD
ATOM     26  H   UNL     1      -7.239   7.032  -6.349  0.00  0.00    +0.000 HD
ENDBRANCH  17  23
ENDBRANCH   1  16
TORSDOF 7
ENDMDL
MODEL 4
REMARK VINA RESULT:    -4.257     25.627     27.403
REMARK INTER + INTRA:          -6.204
REMARK INTER:                  -5.629
REMARK INTRA:                  -0.575
REMARK UNBOUND:                -0.578
REMARK  Name = 1551246
REMARK  7 active torsions:
REMARK  status: ('A' for Active; 'I' for Inactive)
REMARK    1  A    between atoms: C_2  and  C_3
REMARK    2  A    between atoms: C_2  and  C_4
REMARK    3  A    between atoms: C_3  and  C_5
REMARK    4  A    between atoms: C_4  and  C_7
REMARK    5  A    between atoms: C_6  and  C_8
REMARK    6  A    between atoms: C_6  and  C_9
REMARK    7  A    between atoms: C_10  and  C_11
REMARK                            x       y       z     vdW  Elec       q    Type
REMARK                         _______ _______ _______ _____ _____    ______ ____
ROOT
ATOM      1  C   UNL     1     -21.231  -3.479   2.459  0.00  0.00    +0.000 C 
ATOM      2  H   UNL     1     -21.515  -4.171   3.262  0.00  0.00    +0.000 HD
ATOM      3  H   UNL     1     -22.007  -3.602   1.695  0.00  0.00    +0.000 HD
ENDROOT
BRANCH   1   4
ATOM      4  C   UNL     1     -21.239  -2.033   2.973  0.00  0.00    +0.000 C 
ATOM      5  H   UNL     1     -22.123  -1.519   2.575  0.00  0.00    +0.000 HD
ATOM      6  H   UNL     1     -20.372  -1.494   2.571  0.00  0.00    +0.000 HD
BRANCH   4   7
ATOM      7  C   UNL     1     -21.256  -1.921   4.487  0.00  0.00    +0.000 C 
ATOM      8  C   UNL     1     -20.696  -0.915   5.185  0.00  0.00    +0.000 C 
ATOM      9  H   UNL     1     -20.176  -0.125   4.650  0.00  0.00    +0.000 HD
BRANCH   7  10
ATOM     10  C   UNL     1     -21.994  -3.020   5.207  0.00  0.00    +0.000 C 
ATOM     11  H   UNL     1     -22.188  -3.910   4.602  0.00  0.00    +0.000 HD
ATOM     12  H   UNL     1     -21.409  -3.359   6.069  0.00  0.00    +0.000 HD
ATOM     13  H   UNL     1     -22.959  -2.655   5.572  0.00  0.00    +0.000 HD
ENDBRANCH   7  10
BRANCH   8  15
ATOM     14  N   UNL     1     -20.784  -0.720   7.757  0.00  0.00    +0.000 NA
ATOM     15  C   UNL     1     -20.747  -0.803   6.601  0.00  0.00    +0.000 C 
ENDBRANCH   8  15
ENDBRANCH   4   7
ENDBRANCH   1   4
BRANCH   1  16
ATOM     16  C   UNL     1     -19.887  -3.893   1.927  0.00  0.00    +0.000 C 
ATOM     17  C   UNL     1     -18.925  -4.595   2.553  0.00  0.00    +0.000 C 
ATOM     18  H   UNL     1     -19.690  -3.578   0.903  0.00  0.00    +0.000 HD
BRANCH  17  19
ATOM     19  C   UNL     1     -17.598  -4.977   1.958  0.00  0.00    +0.000 C 
ATOM     20  H   UNL     1     -17.084  -4.091   1.572  0.00  0.00    +0.000 HD
ATOM     21  H   UNL     1     -16.963  -5.451   2.713  0.00  0.00    +0.000 HD
ATOM     22  H   UNL     1     -17.718  -5.683   1.130  0.00  0.00    +0.000 HD
ENDBRANCH  17  19
BRANCH  17  23
ATOM     23  C   UNL     1     -19.133  -5.081   3.963  0.00  0.00    +0.000 C 
ATOM     24  H   UNL     1     -18.830  -6.130   4.042  0.00  0.00    +0.000 HD
ATOM     25  H   UNL     1     -20.163  -5.022   4.320  0.00  0.00    +0.000 HD
ATOM     26  H   UNL     1     -18.516  -4.496   4.653  0.00  0.00    +0.000 HD
ENDBRANCH  17  23
ENDBRANCH   1  16
TORSDOF 7
ENDMDL
MODEL 5
REMARK VINA RESULT:    -4.205     10.695     11.979
REMARK INTER + INTRA:          -6.135
REMARK INTER:                  -5.727
REMARK INTRA:                  -0.408
REMARK UNBOUND:                -0.578
REMARK  Name = 1551246
REMARK  7 active torsions:
REMARK  status: ('A' for Active; 'I' for Inactive)
REMARK    1  A    between atoms: C_2  and  C_3
REMARK    2  A    between atoms: C_2  and  C_4
REMARK    3  A    between atoms: C_3  and  C_5
REMARK    4  A    between atoms: C_4  and  C_7
REMARK    5  A    between atoms: C_6  and  C_8
REMARK    6  A    between atoms: C_6  and  C_9
REMARK    7  A    between atoms: C_10  and  C_11
REMARK                            x       y       z     vdW  Elec       q    Type
REMARK                         _______ _______ _______ _____ _____    ______ ____
ROOT
ATOM      1  C   UNL     1       3.243   0.490 -15.495  0.00  0.00    +0.000 C 
ATOM      2  H   UNL     1       3.205   1.246 -16.290  0.00  0.00    +0.000 HD
ATOM      3  H   UNL     1       2.736  -0.386 -15.917  0.00  0.00    +0.000 HD
ENDROOT
BRANCH   1   4
ATOM      4  C   UNL     1       4.698   0.134 -15.164  0.00  0.00    +0.000 C 
ATOM      5  H   UNL     1       4.829   0.150 -14.075  0.00  0.00    +0.000 HD
ATOM      6  H   UNL     1       5.366   0.909 -15.558  0.00  0.00    +0.000 HD
BRANCH   4   7
ATOM      7  C   UNL     1       5.128  -1.226 -15.681  0.00  0.00    +0.000 C 
ATOM      8  C   UNL     1       4.693  -2.402 -15.191  0.00  0.00    +0.000 C 
ATOM      9  H   UNL     1       3.998  -2.404 -14.356  0.00  0.00    +0.000 HD
BRANCH   7  10
ATOM     10  C   UNL     1       6.081  -1.201 -16.848  0.00  0.00    +0.000 C 
ATOM     11  H   UNL     1       5.754  -1.784 -17.714  0.00  0.00    +0.000 HD
ATOM     12  H   UNL     1       6.209  -0.173 -17.203  0.00  0.00    +0.000 HD
ATOM     13  H   UNL     1       7.062  -1.583 -16.547  0.00  0.00    +0.000 HD
ENDBRANCH   7  10
BRANCH   8  15
ATOM     14  N   UNL     1       5.382  -4.708 -16.125  0.00  0.00    +0.000 NA
ATOM     15  C   UNL     1       5.077  -3.670 -15.705  0.00  0.00    +0.000 C 
ENDBRANCH   8  15
ENDBRANCH   4   7
ENDBRANCH   1   4
BRANCH   1  16
ATOM     16  C   UNL     1       2.493   1.017 -14.302  0.00  0.00    +0.000 C 
ATOM     17  C   UNL     1       1.862   0.316 -13.341  0.00  0.00    +0.000 C 
ATOM     18  H   UNL     1       2.473   2.102 -14.223  0.00  0.00    +0.000 HD
BRANCH  17  19
ATOM     19  C   UNL     1       1.129   0.909 -12.171  0.00  0.00    +0.000 C 
ATOM     20  H   UNL     1       1.718   0.798 -11.256  0.00  0.00    +0.000 HD
ATOM     21  H   UNL     1       0.938   1.974 -12.339  0.00  0.00    +0.000 HD
ATOM     22  H   UNL     1       0.164   0.417 -12.011  0.00  0.00    +0.000 HD
ENDBRANCH  17  19
BRANCH  17  23
ATOM     23  C   UNL     1       1.863  -1.189 -13.373  0.00  0.00    +0.000 C 
ATOM     24  H   UNL     1       2.134  -1.581 -12.387  0.00  0.00    +0.000 HD
ATOM     25  H   UNL     1       2.557  -1.632 -14.090  0.00  0.00    +0.000 HD
ATOM     26  H   UNL     1       0.861  -1.557 -13.620  0.00  0.00    +0.000 HD
ENDBRANCH  17  23
ENDBRANCH   1  16
TORSDOF 7
ENDMDL
MODEL 6
REMARK VINA RESULT:    -4.199      1.634      1.981
REMARK INTER + INTRA:          -6.127
REMARK INTER:                  -5.786
REMARK INTRA:                  -0.341
REMARK UNBOUND:                -0.578
REMARK  Name = 1551246
REMARK  7 active torsions:
REMARK  status: ('A' for Active; 'I' for Inactive)
REMARK    1  A    between atoms: C_2  and  C_3
REMARK    2  A    between atoms: C_2  and  C_4
REMARK    3  A    between atoms: C_3  and  C_5
REMARK    4  A    between atoms: C_4  and  C_7
REMARK    5  A    between atoms: C_6  and  C_8
REMARK    6  A    between atoms: C_6  and  C_9
REMARK    7  A    between atoms: C_10  and  C_11
REMARK                            x       y       z     vdW  Elec       q    Type
REMARK                         _______ _______ _______ _____ _____    ______ ____
ROOT
ATOM      1  C   UNL     1      -1.573   7.045 -12.247  0.00  0.00    +0.000 C 
ATOM      2  H   UNL     1      -2.384   7.336 -12.928  0.00  0.00    +0.000 HD
ATOM      3  H   UNL     1      -1.210   6.087 -12.638  0.00  0.00    +0.000 HD
ENDROOT
BRANCH   1   4
ATOM      4  C   UNL     1      -0.442   8.081 -12.289  0.00  0.00    +0.000 C 
ATOM      5  H   UNL     1       0.519   7.556 -12.356  0.00  0.00    +0.000 HD
ATOM      6  H   UNL     1      -0.416   8.635 -11.343  0.00  0.00    +0.000 HD
BRANCH   4   7
ATOM      7  C   UNL     1      -0.544   9.052 -13.450  0.00  0.00    +0.000 C 
ATOM      8  C   UNL     1       0.345   9.134 -14.458  0.00  0.00    +0.000 C 
ATOM      9  H   UNL     1       1.214   8.481 -14.452  0.00  0.00    +0.000 HD
BRANCH   7  10
ATOM     10  C   UNL     1      -1.762   9.938 -13.446  0.00  0.00    +0.000 C 
ATOM     11  H   UNL     1      -2.368   9.875 -12.537  0.00  0.00    +0.000 HD
ATOM     12  H   UNL     1      -1.460  10.988 -13.538  0.00  0.00    +0.000 HD
ATOM     13  H   UNL     1      -2.413   9.696 -14.292  0.00  0.00    +0.000 HD
ENDBRANCH   7  10
BRANCH   8  15
ATOM     14  N   UNL     1       0.129  10.749 -16.460  0.00  0.00    +0.000 NA
ATOM     15  C   UNL     1       0.223  10.025 -15.558  0.00  0.00    +0.000 C 
ENDBRANCH   8  15
ENDBRANCH   4   7
ENDBRANCH   1   4
BRANCH   1  16
ATOM     16  C   UNL     1      -2.148   6.874 -10.868  0.00  0.00    +0.000 C 
ATOM     17  C   UNL     1      -3.444   6.828 -10.507  0.00  0.00    +0.000 C 
ATOM     18  H   UNL     1      -1.405   6.774 -10.078  0.00  0.00    +0.000 HD
BRANCH  17  19
ATOM     19  C   UNL     1      -3.950   6.654  -9.103  0.00  0.00    +0.000 C 
ATOM     20  H   UNL     1      -4.867   7.232  -8.954  0.00  0.00    +0.000 HD
ATOM     21  H   UNL     1      -4.164   5.599  -8.902  0.00  0.00    +0.000 HD
ATOM     22  H   UNL     1      -3.215   6.993  -8.366  0.00  0.00    +0.000 HD
ENDBRANCH  17  19
BRANCH  17  23
ATOM     23  C   UNL     1      -4.527   6.940 -11.546  0.00  0.00    +0.000 C 
ATOM     24  H   UNL     1      -4.755   5.949 -11.953  0.00  0.00    +0.000 HD
ATOM     25  H   UNL     1      -4.282   7.581 -12.396  0.00  0.00    +0.000 HD
ATOM     26  H   UNL     1      -5.440   7.338 -11.091  0.00  0.00    +0.000 HD
ENDBRANCH  17  23
ENDBRANCH   1  16
TORSDOF 7
ENDMDL
MODEL 7
REMARK VINA RESULT:    -4.174     18.305     20.126
REMARK INTER + INTRA:          -6.094
REMARK INTER:                  -5.416
REMARK INTRA:                  -0.678
REMARK UNBOUND:                -0.578
REMARK  Name = 1551246
REMARK  7 active torsions:
REMARK  status: ('A' for Active; 'I' for Inactive)
REMARK    1  A    between atoms: C_2  and  C_3
REMARK    2  A    between atoms: C_2  and  C_4
REMARK    3  A    between atoms: C_3  and  C_5
REMARK    4  A    between atoms: C_4  and  C_7
REMARK    5  A    between atoms: C_6  and  C_8
REMARK    6  A    between atoms: C_6  and  C_9
REMARK    7  A    between atoms: C_10  and  C_11
REMARK                            x       y       z     vdW  Elec       q    Type
REMARK                         _______ _______ _______ _____ _____    ______ ____
ROOT
ATOM      1  C   UNL     1      -6.927  13.388   5.110  0.00  0.00    +0.000 C 
ATOM      2  H   UNL     1      -6.325  13.839   4.311  0.00  0.00    +0.000 HD
ATOM      3  H   UNL     1      -7.838  13.996   5.151  0.00  0.00    +0.000 HD
ENDROOT
BRANCH   1   4
ATOM      4  C   UNL     1      -7.288  11.940   4.755  0.00  0.00    +0.000 C 
ATOM      5  H   UNL     1      -6.424  11.297   4.963  0.00  0.00    +0.000 HD
ATOM      6  H   UNL     1      -7.470  11.860   3.677  0.00  0.00    +0.000 HD
BRANCH   4   7
ATOM      7  C   UNL     1      -8.484  11.403   5.519  0.00  0.00    +0.000 C 
ATOM      8  C   UNL     1      -8.413  10.491   6.507  0.00  0.00    +0.000 C 
ATOM      9  H   UNL     1      -7.444  10.084   6.783  0.00  0.00    +0.000 HD
BRANCH   7  10
ATOM     10  C   UNL     1      -9.816  11.991   5.130  0.00  0.00    +0.000 C 
ATOM     11  H   UNL     1     -10.337  12.512   5.938  0.00  0.00    +0.000 HD
ATOM     12  H   UNL     1      -9.679  12.728   4.331  0.00  0.00    +0.000 HD
ATOM     13  H   UNL     1     -10.484  11.208   4.759  0.00  0.00    +0.000 HD
ENDBRANCH   7  10
BRANCH   8  15
ATOM     14  N   UNL     1     -10.453   9.627   7.832  0.00  0.00    +0.000 NA
ATOM     15  C   UNL     1      -9.537  10.020   7.238  0.00  0.00    +0.000 C 
ENDBRANCH   8  15
ENDBRANCH   4   7
ENDBRANCH   1   4
BRANCH   1  16
ATOM     16  C   UNL     1      -6.160  13.491   6.400  0.00  0.00    +0.000 C 
ATOM     17  C   UNL     1      -6.618  13.850   7.613  0.00  0.00    +0.000 C 
ATOM     18  H   UNL     1      -5.105  13.235   6.320  0.00  0.00    +0.000 HD
BRANCH  17  19
ATOM     19  C   UNL     1      -5.793  13.931   8.866  0.00  0.00    +0.000 C 
ATOM     20  H   UNL     1      -5.754  12.956   9.362  0.00  0.00    +0.000 HD
ATOM     21  H   UNL     1      -4.771  14.247   8.631  0.00  0.00    +0.000 HD
ATOM     22  H   UNL     1      -6.211  14.652   9.576  0.00  0.00    +0.000 HD
ENDBRANCH  17  19
BRANCH  17  23
ATOM     23  C   UNL     1      -8.070  14.199   7.805  0.00  0.00    +0.000 C 
ATOM     24  H   UNL     1      -8.428  14.779   6.948  0.00  0.00    +0.000 HD
ATOM     25  H   UNL     1      -8.286  14.789   8.698  0.00  0.00    +0.000 HD
ATOM     26  H   UNL     1      -8.668  13.283   7.868  0.00  0.00    +0.000 HD
ENDBRANCH  17  23
ENDBRANCH   1  16
TORSDOF 7
ENDMDL
MODEL 8
REMARK VINA RESULT:    -4.131     27.074     28.311
REMARK INTER + INTRA:          -6.037
REMARK INTER:                  -5.440
REMARK INTRA:                  -0.597
REMARK UNBOUND:                -0.578
REMARK  Name = 1551246
REMARK  7 active torsions:
REMARK  status: ('A' for Active; 'I' for Inactive)
REMARK    1  A    between atoms: C_2  and  C_3
REMARK    2  A    between atoms: C_2  and  C_4
REMARK    3  A    between atoms: C_3  and  C_5
REMARK    4  A    between atoms: C_4  and  C_7
REMARK    5  A    between atoms: C_6  and  C_8
REMARK    6  A    between atoms: C_6  and  C_9
REMARK    7  A    between atoms: C_10  and  C_11
REMARK                            x       y       z     vdW  Elec       q    Type
REMARK                         _______ _______ _______ _____ _____    ______ ____
ROOT
ATOM      1  C   UNL     1      12.262  -4.359   6.914  0.00  0.00    +0.000 C 
ATOM      2  H   UNL     1      11.208  -4.157   7.143  0.00  0.00    +0.000 HD
ATOM      3  H   UNL     1      12.321  -4.330   5.820  0.00  0.00    +0.000 HD
ENDROOT
BRANCH   1   4
ATOM      4  C   UNL     1      13.157  -3.263   7.507  0.00  0.00    +0.000 C 
ATOM      5  H   UNL     1      12.942  -2.314   7.000  0.00  0.00    +0.000 HD
ATOM      6  H   UNL     1      14.208  -3.488   7.290  0.00  0.00    +0.000 HD
BRANCH   4   7
ATOM      7  C   UNL     1      12.973  -3.064   9.001  0.00  0.00    +0.000 C 
ATOM      8  C   UNL     1      11.844  -2.610   9.577  0.00  0.00    +0.000 C 
ATOM      9  H   UNL     1      10.998  -2.345   8.949  0.00  0.00    +0.000 HD
BRANCH   7  10
ATOM     10  C   UNL     1      14.153  -3.450   9.854  0.00  0.00    +0.000 C 
ATOM     11  H   UNL     1      14.027  -3.250  10.922  0.00  0.00    +0.000 HD
ATOM     12  H   UNL     1      14.341  -4.526   9.765  0.00  0.00    +0.000 HD
ATOM     13  H   UNL     1      15.052  -2.919   9.524  0.00  0.00    +0.000 HD
ENDBRANCH   7  10
BRANCH   8  15
ATOM     14  N   UNL     1      11.525  -2.329  12.123  0.00  0.00    +0.000 NA
ATOM     15  C   UNL     1      11.671  -2.459  10.980  0.00  0.00    +0.000 C 
ENDBRANCH   8  15
ENDBRANCH   4   7
ENDBRANCH   1   4
BRANCH   1  16
ATOM     16  C   UNL     1      12.608  -5.728   7.431  0.00  0.00    +0.000 C 
ATOM     17  C   UNL     1      11.806  -6.604   8.065  0.00  0.00    +0.000 C 
ATOM     18  H   UNL     1      13.639  -6.030   7.258  0.00  0.00    +0.000 HD
BRANCH  17  19
ATOM     19  C   UNL     1      12.219  -7.963   8.557  0.00  0.00    +0.000 C 
ATOM     20  H   UNL     1      11.661  -8.744   8.033  0.00  0.00    +0.000 HD
ATOM     21  H   UNL     1      13.289  -8.121   8.389  0.00  0.00    +0.000 HD
ATOM     22  H   UNL     1      12.029  -8.076   9.629  0.00  0.00    +0.000 HD
ENDBRANCH  17  19
BRANCH  17  23
ATOM     23  C   UNL     1      10.363  -6.265   8.324  0.00  0.00    +0.000 C 
ATOM     24  H   UNL     1      10.129  -6.418   9.383  0.00  0.00    +0.000 HD
ATOM     25  H   UNL     1       9.643  -6.857   7.754  0.00  0.00    +0.000 HD
ATOM     26  H   UNL     1      10.179  -5.212   8.084  0.00  0.00    +0.000 HD
ENDBRANCH  17  23
ENDBRANCH   1  16
TORSDOF 7
ENDMDL
MODEL 9
REMARK VINA RESULT:    -4.117     27.557     30.068
REMARK INTER + INTRA:          -6.019
REMARK INTER:                  -5.565
REMARK INTRA:                  -0.455
REMARK UNBOUND:                -0.578
REMARK  Name = 1551246
REMARK  7 active torsions:
REMARK  status: ('A' for Active; 'I' for Inactive)
REMARK    1  A    between atoms: C_2  and  C_3
REMARK    2  A    between atoms: C_2  and  C_4
REMARK    3  A    between atoms: C_3  and  C_5
REMARK    4  A    between atoms: C_4  and  C_7
REMARK    5  A    between atoms: C_6  and  C_8
REMARK    6  A    between atoms: C_6  and  C_9
REMARK    7  A    between atoms: C_10  and  C_11
REMARK                            x       y       z     vdW  Elec       q    Type
REMARK                         _______ _______ _______ _____ _____    ______ ____
ROOT
ATOM      1  C   UNL     1     -20.429  -1.157   7.208  0.00  0.00    +0.000 C 
ATOM      2  H   UNL     1     -19.383  -0.887   7.403  0.00  0.00    +0.000 HD
ATOM      3  H   UNL     1     -20.488  -2.229   7.428  0.00  0.00    +0.000 HD
ENDROOT
BRANCH   1   4
ATOM      4  C   UNL     1     -21.365  -0.385   8.148  0.00  0.00    +0.000 C 
ATOM      5  H   UNL     1     -21.659   0.554   7.664  0.00  0.00    +0.000 HD
ATOM      6  H   UNL     1     -20.820  -0.098   9.055  0.00  0.00    +0.000 HD
BRANCH   4   7
ATOM      7  C   UNL     1     -22.620  -1.150   8.524  0.00  0.00    +0.000 C 
ATOM      8  C   UNL     1     -22.873  -2.425   8.173  0.00  0.00    +0.000 C 
ATOM      9  H   UNL     1     -22.149  -2.959   7.563  0.00  0.00    +0.000 HD
BRANCH   7  10
ATOM     10  C   UNL     1     -23.604  -0.395   9.380  0.00  0.00    +0.000 C 
ATOM     11  H   UNL     1     -23.411  -0.456  10.455  0.00  0.00    +0.000 HD
ATOM     12  H   UNL     1     -23.579   0.671   9.126  0.00  0.00    +0.000 HD
ATOM     13  H   UNL     1     -24.620  -0.762   9.207  0.00  0.00    +0.000 HD
ENDBRANCH   7  10
BRANCH   8  15
ATOM     14  N   UNL     1     -24.988  -3.731   8.866  0.00  0.00    +0.000 NA
ATOM     15  C   UNL     1     -24.038  -3.142   8.558  0.00  0.00    +0.000 C 
ENDBRANCH   8  15
ENDBRANCH   4   7
ENDBRANCH   1   4
BRANCH   1  16
ATOM     16  C   UNL     1     -20.726  -0.894   5.757  0.00  0.00    +0.000 C 
ATOM     17  C   UNL     1     -20.913  -1.791   4.771  0.00  0.00    +0.000 C 
ATOM     18  H   UNL     1     -20.797   0.160   5.494  0.00  0.00    +0.000 HD
BRANCH  17  19
ATOM     19  C   UNL     1     -21.208  -1.457   3.335  0.00  0.00    +0.000 C 
ATOM     20  H   UNL     1     -20.566  -2.041   2.668  0.00  0.00    +0.000 HD
ATOM     21  H   UNL     1     -22.254  -1.677   3.099  0.00  0.00    +0.000 HD
ATOM     22  H   UNL     1     -21.033  -0.397   3.126  0.00  0.00    +0.000 HD
ENDBRANCH  17  19
BRANCH  17  23
ATOM     23  C   UNL     1     -20.848  -3.266   5.062  0.00  0.00    +0.000 C 
ATOM     24  H   UNL     1     -20.888  -3.832   4.125  0.00  0.00    +0.000 HD
ATOM     25  H   UNL     1     -21.654  -3.645   5.694  0.00  0.00    +0.000 HD
ATOM     26  H   UNL     1     -19.903  -3.505   5.563  0.00  0.00    +0.000 HD
ENDBRANCH  17  23
ENDBRANCH   1  16
TORSDOF 7
ENDMDL
MODEL 10
REMARK VINA RESULT:    -4.040     18.320     19.756
REMARK INTER + INTRA:          -5.916
REMARK INTER:                  -5.338
REMARK INTRA:                  -0.578
REMARK UNBOUND:                -0.578
REMARK  Name = 1551246
REMARK  7 active torsions:
REMARK  status: ('A' for Active; 'I' for Inactive)
REMARK    1  A    between atoms: C_2  and  C_3
REMARK    2  A    between atoms: C_2  and  C_4
REMARK    3  A    between atoms: C_3  and  C_5
REMARK    4  A    between atoms: C_4  and  C_7
REMARK    5  A    between atoms: C_6  and  C_8
REMARK    6  A    between atoms: C_6  and  C_9
REMARK    7  A    between atoms: C_10  and  C_11
REMARK                            x       y       z     vdW  Elec       q    Type
REMARK                         _______ _______ _______ _____ _____    ______ ____
ROOT
ATOM      1  C   UNL     1      -7.867  12.002   4.574  0.00  0.00    +0.000 C 
ATOM      2  H   UNL     1      -8.720  12.682   4.698  0.00  0.00    +0.000 HD
ATOM      3  H   UNL     1      -7.921  11.672   3.530  0.00  0.00    +0.000 HD
ENDROOT
BRANCH   1   4
ATOM      4  C   UNL     1      -6.548  12.749   4.810  0.00  0.00    +0.000 C 
ATOM      5  H   UNL     1      -6.191  13.150   3.853  0.00  0.00    +0.000 HD
ATOM      6  H   UNL     1      -5.780  12.043   5.145  0.00  0.00    +0.000 HD
BRANCH   4   7
ATOM      7  C   UNL     1      -6.662  13.893   5.801  0.00  0.00    +0.000 C 
ATOM      8  C   UNL     1      -6.549  13.760   7.136  0.00  0.00    +0.000 C 
ATOM      9  H   UNL     1      -6.382  12.773   7.558  0.00  0.00    +0.000 HD
BRANCH   7  10
ATOM     10  C   UNL     1      -6.880  15.254   5.193  0.00  0.00    +0.000 C 
ATOM     11  H   UNL     1      -6.444  15.384   4.199  0.00  0.00    +0.000 HD
ATOM     12  H   UNL     1      -7.954  15.445   5.083  0.00  0.00    +0.000 HD
ATOM     13  H   UNL     1      -6.461  16.031   5.840  0.00  0.00    +0.000 HD
ENDBRANCH   7  10
BRANCH   8  15
ATOM     14  N   UNL     1      -6.691  15.732   8.796  0.00  0.00    +0.000 NA
ATOM     15  C   UNL     1      -6.624  14.844   8.053  0.00  0.00    +0.000 C 
ENDBRANCH   8  15
ENDBRANCH   4   7
ENDBRANCH   1   4
BRANCH   1  16
ATOM     16  C   UNL     1      -8.045  10.838   5.510  0.00  0.00    +0.000 C 
ATOM     17  C   UNL     1      -8.848  10.754   6.587  0.00  0.00    +0.000 C 
ATOM     18  H   UNL     1      -7.443   9.965   5.266  0.00  0.00    +0.000 HD
BRANCH  17  19
ATOM     19  C   UNL     1      -8.978   9.555   7.484  0.00  0.00    +0.000 C 
ATOM     20  H   UNL     1      -9.185   8.657   6.893  0.00  0.00    +0.000 HD
ATOM     21  H   UNL     1      -8.054   9.398   8.050  0.00  0.00    +0.000 HD
ATOM     22  H   UNL     1      -9.795   9.678   8.203  0.00  0.00    +0.000 HD
ENDBRANCH  17  19
BRANCH  17  23
ATOM     23  C   UNL     1      -9.725  11.915   6.976  0.00  0.00    +0.000 C 
ATOM     24  H   UNL     1     -10.733  11.556   7.210  0.00  0.00    +0.000 HD
ATOM     25  H   UNL     1      -9.834  12.683   6.208  0.00  0.00    +0.000 HD
ATOM     26  H   UNL     1      -9.322  12.402   7.870  0.00  0.00    +0.000 HD
ENDBRANCH  17  23
ENDBRANCH   1  16
TORSDOF 7
ENDMDL
