MODEL 1
REMARK VINA RESULT:    -4.768      0.000      0.000
REMARK INTER + INTRA:          -6.944
REMARK INTER:                  -6.244
REMARK INTRA:                  -0.700
REMARK UNBOUND:                -0.643
REMARK  Name = 638011
REMARK  7 active torsions:
REMARK  status: ('A' for Active; 'I' for Inactive)
REMARK    1  A    between atoms: C_2  and  C_3
REMARK    2  A    between atoms: C_2  and  C_4
REMARK    3  A    between atoms: C_3  and  C_5
REMARK    4  A    between atoms: C_4  and  C_7
REMARK    5  A    between atoms: C_6  and  C_9
REMARK    6  A    between atoms: C_6  and  C_10
REMARK    7  A    between atoms: C_8  and  C_11
REMARK                            x       y       z     vdW  Elec       q    Type
REMARK                         _______ _______ _______ _____ _____    ______ ____
ROOT
ATOM      1  C   UNL     1       5.117   9.181   1.590  0.00  0.00    +0.000 C 
ATOM      2  H   UNL     1       4.517   8.748   2.394  0.00  0.00    +0.000 HD
ATOM      3  H   UNL     1       5.626  10.049   2.029  0.00  0.00    +0.000 HD
ENDROOT
BRANCH   1   4
ATOM      4  C   UNL     1       6.188   8.171   1.152  0.00  0.00    +0.000 C 
ATOM      5  H   UNL     1       5.729   7.420   0.496  0.00  0.00    +0.000 HD
ATOM      6  H   UNL     1       6.546   7.624   2.033  0.00  0.00    +0.000 HD
BRANCH   4   7
ATOM      7  C   UNL     1       7.364   8.801   0.431  0.00  0.00    +0.000 C 
ATOM      8  C   UNL     1       7.691   8.610  -0.859  0.00  0.00    +0.000 C 
ATOM      9  H   UNL     1       7.065   7.981  -1.485  0.00  0.00    +0.000 HD
BRANCH   7  10
ATOM     10  C   UNL     1       8.189   9.743   1.272  0.00  0.00    +0.000 C 
ATOM     11  H   UNL     1       7.588  10.479   1.815  0.00  0.00    +0.000 HD
ATOM     12  H   UNL     1       8.920  10.269   0.652  0.00  0.00    +0.000 HD
ATOM     13  H   UNL     1       8.734   9.187   2.043  0.00  0.00    +0.000 HD
ENDBRANCH   7  10
BRANCH   8  15
ATOM     14  O   UNL     1       9.911   8.713  -1.667  0.00  0.00    +0.000 OA
ATOM     15  C   UNL     1       8.822   9.263  -1.553  0.00  0.00    +0.000 C 
ATOM     16  H   UNL     1       8.628  10.258  -1.985  0.00  0.00    +0.000 HD
ENDBRANCH   8  15
ENDBRANCH   4   7
ENDBRANCH   1   4
BRANCH   1  17
ATOM     17  C   UNL     1       4.280   9.674   0.441  0.00  0.00    +0.000 C 
ATOM     18  C   UNL     1       4.356  10.858  -0.193  0.00  0.00    +0.000 C 
ATOM     19  H   UNL     1       3.545   8.952   0.086  0.00  0.00    +0.000 HD
BRANCH  18  20
ATOM     20  C   UNL     1       3.429  11.167  -1.339  0.00  0.00    +0.000 C 
ATOM     21  H   UNL     1       2.422  11.378  -0.964  0.00  0.00    +0.000 HD
ATOM     22  H   UNL     1       3.374  10.314  -2.022  0.00  0.00    +0.000 HD
ATOM     23  H   UNL     1       3.756  12.037  -1.919  0.00  0.00    +0.000 HD
ENDBRANCH  18  20
BRANCH  18  24
ATOM     24  C   UNL     1       5.309  11.969   0.149  0.00  0.00    +0.000 C 
ATOM     25  H   UNL     1       6.335  11.665  -0.083  0.00  0.00    +0.000 HD
ATOM     26  H   UNL     1       5.289  12.264   1.199  0.00  0.00    +0.000 HD
ATOM     27  H   UNL     1       5.073  12.859  -0.444  0.00  0.00    +0.000 HD
ENDBRANCH  18  24
ENDBRANCH   1  17
TORSDOF 7
ENDMDL
MODEL 2
REMARK VINA RESULT:    -4.711     13.397     14.447
REMARK INTER + INTRA:          -6.869
REMARK INTER:                  -6.264
REMARK INTRA:                  -0.606
REMARK UNBOUND:                -0.643
REMARK  Name = 638011
REMARK  7 active torsions:
REMARK  status: ('A' for Active; 'I' for Inactive)
REMARK    1  A    between atoms: C_2  and  C_3
REMARK    2  A    between atoms: C_2  and  C_4
REMARK    3  A    between atoms: C_3  and  C_5
REMARK    4  A    between atoms: C_4  and  C_7
REMARK    5  A    between atoms: C_6  and  C_9
REMARK    6  A    between atoms: C_6  and  C_10
REMARK    7  A    between atoms: C_8  and  C_11
REMARK                            x       y       z     vdW  Elec       q    Type
REMARK                         _______ _______ _______ _____ _____    ______ ____
ROOT
ATOM      1  C   UNL     1      -2.626   9.937 -10.062  0.00  0.00    +0.000 C 
ATOM      2  H   UNL     1      -2.838  10.851  -9.501  0.00  0.00    +0.000 HD
ATOM      3  H   UNL     1      -3.329   9.933 -10.904  0.00  0.00    +0.000 HD
ENDROOT
BRANCH   1   4
ATOM      4  C   UNL     1      -1.200  10.004 -10.628  0.00  0.00    +0.000 C 
ATOM      5  H   UNL     1      -0.562   9.298 -10.083  0.00  0.00    +0.000 HD
ATOM      6  H   UNL     1      -0.784  11.001 -10.433  0.00  0.00    +0.000 HD
BRANCH   4   7
ATOM      7  C   UNL     1      -1.117   9.701 -12.111  0.00  0.00    +0.000 C 
ATOM      8  C   UNL     1      -0.113   9.053 -12.728  0.00  0.00    +0.000 C 
ATOM      9  H   UNL     1       0.718   8.669 -12.142  0.00  0.00    +0.000 HD
BRANCH   7  10
ATOM     10  C   UNL     1      -2.308  10.156 -12.917  0.00  0.00    +0.000 C 
ATOM     11  H   UNL     1      -3.101   9.405 -12.983  0.00  0.00    +0.000 HD
ATOM     12  H   UNL     1      -2.002  10.438 -13.929  0.00  0.00    +0.000 HD
ATOM     13  H   UNL     1      -2.773  11.030 -12.448  0.00  0.00    +0.000 HD
ENDBRANCH   7  10
BRANCH   8  15
ATOM     14  O   UNL     1       0.770   9.231 -14.914  0.00  0.00    +0.000 OA
ATOM     15  C   UNL     1      -0.068   8.734 -14.171  0.00  0.00    +0.000 C 
ATOM     16  H   UNL     1      -0.810   8.008 -14.539  0.00  0.00    +0.000 HD
ENDBRANCH   8  15
ENDBRANCH   4   7
ENDBRANCH   1   4
BRANCH   1  17
ATOM     17  C   UNL     1      -2.871   8.691  -9.255  0.00  0.00    +0.000 C 
ATOM     18  C   UNL     1      -3.287   7.488  -9.692  0.00  0.00    +0.000 C 
ATOM     19  H   UNL     1      -2.656   8.801  -8.193  0.00  0.00    +0.000 HD
BRANCH  18  20
ATOM     20  C   UNL     1      -3.467   6.349  -8.724  0.00  0.00    +0.000 C 
ATOM     21  H   UNL     1      -2.492   5.950  -8.423  0.00  0.00    +0.000 HD
ATOM     22  H   UNL     1      -4.042   5.542  -9.190  0.00  0.00    +0.000 HD
ATOM     23  H   UNL     1      -3.997   6.652  -7.815  0.00  0.00    +0.000 HD
ENDBRANCH  18  20
BRANCH  18  24
ATOM     24  C   UNL     1      -3.621   7.148 -11.117  0.00  0.00    +0.000 C 
ATOM     25  H   UNL     1      -4.107   6.168 -11.163  0.00  0.00    +0.000 HD
ATOM     26  H   UNL     1      -2.756   7.111 -11.780  0.00  0.00    +0.000 HD
ATOM     27  H   UNL     1      -4.313   7.893 -11.526  0.00  0.00    +0.000 HD
ENDBRANCH  18  24
ENDBRANCH   1  17
TORSDOF 7
ENDMDL
MODEL 3
REMARK VINA RESULT:    -4.394     13.479     15.520
REMARK INTER + INTRA:          -6.450
REMARK INTER:                  -6.052
REMARK INTRA:                  -0.397
REMARK UNBOUND:                -0.643
REMARK  Name = 638011
REMARK  7 active torsions:
REMARK  status: ('A' for Active; 'I' for Inactive)
REMARK    1  A    between atoms: C_2  and  C_3
REMARK    2  A    between atoms: C_2  and  C_4
REMARK    3  A    between atoms: C_3  and  C_5
REMARK    4  A    between atoms: C_4  and  C_7
REMARK    5  A    between atoms: C_6  and  C_9
REMARK    6  A    between atoms: C_6  and  C_10
REMARK    7  A    between atoms: C_8  and  C_11
REMARK                            x       y       z     vdW  Elec       q    Type
REMARK                         _______ _______ _______ _____ _____    ______ ____
ROOT
ATOM      1  C   UNL     1      -3.107   6.755 -10.478  0.00  0.00    +0.000 C 
ATOM      2  H   UNL     1      -3.304   6.655  -9.408  0.00  0.00    +0.000 HD
ATOM      3  H   UNL     1      -2.578   5.839 -10.773  0.00  0.00    +0.000 HD
ENDROOT
BRANCH   1   4
ATOM      4  C   UNL     1      -4.439   6.805 -11.240  0.00  0.00    +0.000 C 
ATOM      5  H   UNL     1      -4.359   6.190 -12.146  0.00  0.00    +0.000 HD
ATOM      6  H   UNL     1      -4.615   7.831 -11.586  0.00  0.00    +0.000 HD
BRANCH   4   7
ATOM      7  C   UNL     1      -5.627   6.331 -10.426  0.00  0.00    +0.000 C 
ATOM      8  C   UNL     1      -5.619   6.051  -9.110  0.00  0.00    +0.000 C 
ATOM      9  H   UNL     1      -4.708   6.194  -8.537  0.00  0.00    +0.000 HD
BRANCH   7  10
ATOM     10  C   UNL     1      -6.916   6.212 -11.200  0.00  0.00    +0.000 C 
ATOM     11  H   UNL     1      -7.346   5.206 -11.174  0.00  0.00    +0.000 HD
ATOM     12  H   UNL     1      -6.766   6.507 -12.242  0.00  0.00    +0.000 HD
ATOM     13  H   UNL     1      -7.681   6.867 -10.768  0.00  0.00    +0.000 HD
ENDBRANCH   7  10
BRANCH   8  15
ATOM     14  O   UNL     1      -6.920   4.475  -7.921  0.00  0.00    +0.000 OA
ATOM     15  C   UNL     1      -6.798   5.625  -8.327  0.00  0.00    +0.000 C 
ATOM     16  H   UNL     1      -7.549   6.400  -8.105  0.00  0.00    +0.000 HD
ENDBRANCH   8  15
ENDBRANCH   4   7
ENDBRANCH   1   4
BRANCH   1  17
ATOM     17  C   UNL     1      -2.213   7.922 -10.796  0.00  0.00    +0.000 C 
ATOM     18  C   UNL     1      -2.094   9.084 -10.128  0.00  0.00    +0.000 C 
ATOM     19  H   UNL     1      -1.578   7.770 -11.669  0.00  0.00    +0.000 HD
BRANCH  18  20
ATOM     20  C   UNL     1      -1.128  10.138 -10.600  0.00  0.00    +0.000 C 
ATOM     21  H   UNL     1      -0.379  10.339  -9.827  0.00  0.00    +0.000 HD
ATOM     22  H   UNL     1      -1.661  11.070 -10.818  0.00  0.00    +0.000 HD
ATOM     23  H   UNL     1      -0.596   9.840 -11.510  0.00  0.00    +0.000 HD
ENDBRANCH  18  20
BRANCH  18  24
ATOM     24  C   UNL     1      -2.877   9.467  -8.904  0.00  0.00    +0.000 C 
ATOM     25  H   UNL     1      -3.946   9.507  -9.141  0.00  0.00    +0.000 HD
ATOM     26  H   UNL     1      -2.603  10.436  -8.485  0.00  0.00    +0.000 HD
ATOM     27  H   UNL     1      -2.729   8.719  -8.116  0.00  0.00    +0.000 HD
ENDBRANCH  18  24
ENDBRANCH   1  17
TORSDOF 7
ENDMDL
MODEL 4
REMARK VINA RESULT:    -4.345     28.119     29.583
REMARK INTER + INTRA:          -6.386
REMARK INTER:                  -6.032
REMARK INTRA:                  -0.354
REMARK UNBOUND:                -0.643
REMARK  Name = 638011
REMARK  7 active torsions:
REMARK  status: ('A' for Active; 'I' for Inactive)
REMARK    1  A    between atoms: C_2  and  C_3
REMARK    2  A    between atoms: C_2  and  C_4
REMARK    3  A    between atoms: C_3  and  C_5
REMARK    4  A    between atoms: C_4  and  C_7
REMARK    5  A    between atoms: C_6  and  C_9
REMARK    6  A    between atoms: C_6  and  C_10
REMARK    7  A    between atoms: C_8  and  C_11
REMARK                            x       y       z     vdW  Elec       q    Type
REMARK                         _______ _______ _______ _____ _____    ______ ____
ROOT
ATOM      1  C   UNL     1     -21.384  -3.341   3.982  0.00  0.00    +0.000 C 
ATOM      2  H   UNL     1     -20.997  -2.768   3.136  0.00  0.00    +0.000 HD
ATOM      3  H   UNL     1     -22.477  -3.272   3.915  0.00  0.00    +0.000 HD
ENDROOT
BRANCH   1   4
ATOM      4  C   UNL     1     -20.988  -4.816   3.824  0.00  0.00    +0.000 C 
ATOM      5  H   UNL     1     -21.597  -5.270   3.033  0.00  0.00    +0.000 HD
ATOM      6  H   UNL     1     -21.239  -5.355   4.746  0.00  0.00    +0.000 HD
BRANCH   4   7
ATOM      7  C   UNL     1     -19.522  -5.023   3.497  0.00  0.00    +0.000 C 
ATOM      8  C   UNL     1     -18.921  -4.709   2.335  0.00  0.00    +0.000 C 
ATOM      9  H   UNL     1     -19.496  -4.235   1.545  0.00  0.00    +0.000 HD
BRANCH   7  10
ATOM     10  C   UNL     1     -18.700  -5.603   4.621  0.00  0.00    +0.000 C 
ATOM     11  H   UNL     1     -18.863  -5.104   5.581  0.00  0.00    +0.000 HD
ATOM     12  H   UNL     1     -17.634  -5.564   4.377  0.00  0.00    +0.000 HD
ATOM     13  H   UNL     1     -18.970  -6.652   4.788  0.00  0.00    +0.000 HD
ENDBRANCH   7  10
BRANCH   8  15
ATOM     14  O   UNL     1     -16.925  -4.275   1.144  0.00  0.00    +0.000 OA
ATOM     15  C   UNL     1     -17.482  -4.886   2.049  0.00  0.00    +0.000 C 
ATOM     16  H   UNL     1     -16.929  -5.575   2.707  0.00  0.00    +0.000 HD
ENDBRANCH   8  15
ENDBRANCH   4   7
ENDBRANCH   1   4
BRANCH   1  17
ATOM     17  C   UNL     1     -20.970  -2.768   5.309  0.00  0.00    +0.000 C 
ATOM     18  C   UNL     1     -20.667  -1.490   5.605  0.00  0.00    +0.000 C 
ATOM     19  H   UNL     1     -20.942  -3.498   6.118  0.00  0.00    +0.000 HD
BRANCH  18  20
ATOM     20  C   UNL     1     -20.280  -1.105   7.008  0.00  0.00    +0.000 C 
ATOM     21  H   UNL     1     -19.706  -1.912   7.476  0.00  0.00    +0.000 HD
ATOM     22  H   UNL     1     -21.175  -0.921   7.611  0.00  0.00    +0.000 HD
ATOM     23  H   UNL     1     -19.667  -0.199   7.039  0.00  0.00    +0.000 HD
ENDBRANCH  18  20
BRANCH  18  24
ATOM     24  C   UNL     1     -20.660  -0.350   4.626  0.00  0.00    +0.000 C 
ATOM     25  H   UNL     1     -19.637   0.013   4.482  0.00  0.00    +0.000 HD
ATOM     26  H   UNL     1     -21.265   0.504   4.934  0.00  0.00    +0.000 HD
ATOM     27  H   UNL     1     -21.044  -0.688   3.656  0.00  0.00    +0.000 HD
ENDBRANCH  18  24
ENDBRANCH   1  17
TORSDOF 7
ENDMDL
MODEL 5
REMARK VINA RESULT:    -4.337     16.557     17.244
REMARK INTER + INTRA:          -6.375
REMARK INTER:                  -6.139
REMARK INTRA:                  -0.235
REMARK UNBOUND:                -0.643
REMARK  Name = 638011
REMARK  7 active torsions:
REMARK  status: ('A' for Active; 'I' for Inactive)
REMARK    1  A    between atoms: C_2  and  C_3
REMARK    2  A    between atoms: C_2  and  C_4
REMARK    3  A    between atoms: C_3  and  C_5
REMARK    4  A    between atoms: C_4  and  C_7
REMARK    5  A    between atoms: C_6  and  C_9
REMARK    6  A    between atoms: C_6  and  C_10
REMARK    7  A    between atoms: C_8  and  C_11
REMARK                            x       y       z     vdW  Elec       q    Type
REMARK                         _______ _______ _______ _____ _____    ______ ____
ROOT
ATOM      1  C   UNL     1      -0.354  -0.045 -12.710  0.00  0.00    +0.000 C 
ATOM      2  H   UNL     1      -0.957   0.536 -13.413  0.00  0.00    +0.000 HD
ATOM      3  H   UNL     1      -0.237  -1.037 -13.165  0.00  0.00    +0.000 HD
ENDROOT
BRANCH   1   4
ATOM      4  C   UNL     1       1.039   0.591 -12.585  0.00  0.00    +0.000 C 
ATOM      5  H   UNL     1       1.323   0.631 -11.527  0.00  0.00    +0.000 HD
ATOM      6  H   UNL     1       0.988   1.633 -12.925  0.00  0.00    +0.000 HD
BRANCH   4   7
ATOM      7  C   UNL     1       2.117  -0.144 -13.357  0.00  0.00    +0.000 C 
ATOM      8  C   UNL     1       3.075   0.426 -14.109  0.00  0.00    +0.000 C 
ATOM      9  H   UNL     1       3.136   1.509 -14.171  0.00  0.00    +0.000 HD
BRANCH   7  10
ATOM     10  C   UNL     1       2.090  -1.645 -13.207  0.00  0.00    +0.000 C 
ATOM     11  H   UNL     1       1.159  -2.021 -12.773  0.00  0.00    +0.000 HD
ATOM     12  H   UNL     1       2.930  -1.984 -12.593  0.00  0.00    +0.000 HD
ATOM     13  H   UNL     1       2.170  -2.127 -14.188  0.00  0.00    +0.000 HD
ENDBRANCH   7  10
BRANCH   8  15
ATOM     14  O   UNL     1       5.231  -0.525 -14.310  0.00  0.00    +0.000 OA
ATOM     15  C   UNL     1       4.140  -0.308 -14.825  0.00  0.00    +0.000 C 
ATOM     16  H   UNL     1       3.895  -0.670 -15.837  0.00  0.00    +0.000 HD
ENDBRANCH   8  15
ENDBRANCH   4   7
ENDBRANCH   1   4
BRANCH   1  17
ATOM     17  C   UNL     1      -1.029  -0.228 -11.379  0.00  0.00    +0.000 C 
ATOM     18  C   UNL     1      -2.343  -0.381 -11.128  0.00  0.00    +0.000 C 
ATOM     19  H   UNL     1      -0.342  -0.259 -10.533  0.00  0.00    +0.000 HD
BRANCH  18  20
ATOM     20  C   UNL     1      -2.830  -0.562  -9.715  0.00  0.00    +0.000 C 
ATOM     21  H   UNL     1      -2.966  -1.627  -9.495  0.00  0.00    +0.000 HD
ATOM     22  H   UNL     1      -3.791  -0.055  -9.578  0.00  0.00    +0.000 HD
ATOM     23  H   UNL     1      -2.132  -0.156  -8.976  0.00  0.00    +0.000 HD
ENDBRANCH  18  20
BRANCH  18  24
ATOM     24  C   UNL     1      -3.432  -0.374 -12.163  0.00  0.00    +0.000 C 
ATOM     25  H   UNL     1      -3.048  -0.762 -13.112  0.00  0.00    +0.000 HD
ATOM     26  H   UNL     1      -3.849   0.614 -12.363  0.00  0.00    +0.000 HD
ATOM     27  H   UNL     1      -4.259  -1.016 -11.839  0.00  0.00    +0.000 HD
ENDBRANCH  18  24
ENDBRANCH   1  17
TORSDOF 7
ENDMDL
MODEL 6
REMARK VINA RESULT:    -4.311     15.588     17.282
REMARK INTER + INTRA:          -6.341
REMARK INTER:                  -6.113
REMARK INTRA:                  -0.228
REMARK UNBOUND:                -0.643
REMARK  Name = 638011
REMARK  7 active torsions:
REMARK  status: ('A' for Active; 'I' for Inactive)
REMARK    1  A    between atoms: C_2  and  C_3
REMARK    2  A    between atoms: C_2  and  C_4
REMARK    3  A    between atoms: C_3  and  C_5
REMARK    4  A    between atoms: C_4  and  C_7
REMARK    5  A    between atoms: C_6  and  C_9
REMARK    6  A    between atoms: C_6  and  C_10
REMARK    7  A    between atoms: C_8  and  C_11
REMARK                            x       y       z     vdW  Elec       q    Type
REMARK                         _______ _______ _______ _____ _____    ______ ____
ROOT
ATOM      1  C   UNL     1      -9.213  11.243   6.813  0.00  0.00    +0.000 C 
ATOM      2  H   UNL     1      -9.914  11.100   5.987  0.00  0.00    +0.000 HD
ATOM      3  H   UNL     1      -9.806  11.650   7.642  0.00  0.00    +0.000 HD
ENDROOT
BRANCH   1   4
ATOM      4  C   UNL     1      -8.654   9.881   7.249  0.00  0.00    +0.000 C 
ATOM      5  H   UNL     1      -7.560   9.899   7.172  0.00  0.00    +0.000 HD
ATOM      6  H   UNL     1      -8.994   9.112   6.544  0.00  0.00    +0.000 HD
BRANCH   4   7
ATOM      7  C   UNL     1      -9.042   9.484   8.660  0.00  0.00    +0.000 C 
ATOM      8  C   UNL     1      -8.234   8.905   9.567  0.00  0.00    +0.000 C 
ATOM      9  H   UNL     1      -7.194   8.716   9.315  0.00  0.00    +0.000 HD
BRANCH   7  10
ATOM     10  C   UNL     1     -10.461   9.822   9.044  0.00  0.00    +0.000 C 
ATOM     11  H   UNL     1     -10.573  10.833   9.448  0.00  0.00    +0.000 HD
ATOM     12  H   UNL     1     -10.842   9.104   9.776  0.00  0.00    +0.000 HD
ATOM     13  H   UNL     1     -11.112   9.786   8.163  0.00  0.00    +0.000 HD
ENDBRANCH   7  10
BRANCH   8  15
ATOM     14  O   UNL     1      -9.156   7.490  11.221  0.00  0.00    +0.000 OA
ATOM     15  C   UNL     1      -8.622   8.559  10.951  0.00  0.00    +0.000 C 
ATOM     16  H   UNL     1      -8.383   9.301  11.730  0.00  0.00    +0.000 HD
ENDBRANCH   8  15
ENDBRANCH   4   7
ENDBRANCH   1   4
BRANCH   1  17
ATOM     17  C   UNL     1      -8.132  12.238   6.492  0.00  0.00    +0.000 C 
ATOM     18  C   UNL     1      -7.326  12.270   5.415  0.00  0.00    +0.000 C 
ATOM     19  H   UNL     1      -8.026  13.032   7.231  0.00  0.00    +0.000 HD
BRANCH  18  20
ATOM     20  C   UNL     1      -6.300  13.362   5.265  0.00  0.00    +0.000 C 
ATOM     21  H   UNL     1      -5.434  12.994   4.704  0.00  0.00    +0.000 HD
ATOM     22  H   UNL     1      -5.959  13.698   6.250  0.00  0.00    +0.000 HD
ATOM     23  H   UNL     1      -6.693  14.235   4.734  0.00  0.00    +0.000 HD
ENDBRANCH  18  20
BRANCH  18  24
ATOM     24  C   UNL     1      -7.332  11.268   4.294  0.00  0.00    +0.000 C 
ATOM     25  H   UNL     1      -7.549  10.270   4.687  0.00  0.00    +0.000 HD
ATOM     26  H   UNL     1      -6.388  11.203   3.751  0.00  0.00    +0.000 HD
ATOM     27  H   UNL     1      -8.109  11.527   3.567  0.00  0.00    +0.000 HD
ENDBRANCH  18  24
ENDBRANCH   1  17
TORSDOF 7
ENDMDL
MODEL 7
REMARK VINA RESULT:    -4.173     14.918     16.206
REMARK INTER + INTRA:          -6.158
REMARK INTER:                  -5.608
REMARK INTRA:                  -0.550
REMARK UNBOUND:                -0.643
REMARK  Name = 638011
REMARK  7 active torsions:
REMARK  status: ('A' for Active; 'I' for Inactive)
REMARK    1  A    between atoms: C_2  and  C_3
REMARK    2  A    between atoms: C_2  and  C_4
REMARK    3  A    between atoms: C_3  and  C_5
REMARK    4  A    between atoms: C_4  and  C_7
REMARK    5  A    between atoms: C_6  and  C_9
REMARK    6  A    between atoms: C_6  and  C_10
REMARK    7  A    between atoms: C_8  and  C_11
REMARK                            x       y       z     vdW  Elec       q    Type
REMARK                         _______ _______ _______ _____ _____    ______ ____
ROOT
ATOM      1  C   UNL     1      -6.497  14.322   7.016  0.00  0.00    +0.000 C 
ATOM      2  H   UNL     1      -6.120  15.348   6.991  0.00  0.00    +0.000 HD
ATOM      3  H   UNL     1      -7.590  14.405   7.064  0.00  0.00    +0.000 HD
ENDROOT
BRANCH   1   4
ATOM      4  C   UNL     1      -6.129  13.610   5.706  0.00  0.00    +0.000 C 
ATOM      5  H   UNL     1      -5.476  12.758   5.930  0.00  0.00    +0.000 HD
ATOM      6  H   UNL     1      -5.534  14.291   5.084  0.00  0.00    +0.000 HD
BRANCH   4   7
ATOM      7  C   UNL     1      -7.328  13.119   4.920  0.00  0.00    +0.000 C 
ATOM      8  C   UNL     1      -8.337  13.882   4.462  0.00  0.00    +0.000 C 
ATOM      9  H   UNL     1      -8.312  14.956   4.622  0.00  0.00    +0.000 HD
BRANCH   7  10
ATOM     10  C   UNL     1      -7.325  11.640   4.621  0.00  0.00    +0.000 C 
ATOM     11  H   UNL     1      -7.019  11.026   5.473  0.00  0.00    +0.000 HD
ATOM     12  H   UNL     1      -6.670  11.422   3.773  0.00  0.00    +0.000 HD
ATOM     13  H   UNL     1      -8.336  11.302   4.365  0.00  0.00    +0.000 HD
ENDBRANCH   7  10
BRANCH   8  15
ATOM     14  O   UNL     1      -9.925  14.022   2.716  0.00  0.00    +0.000 OA
ATOM     15  C   UNL     1      -9.480  13.389   3.666  0.00  0.00    +0.000 C 
ATOM     16  H   UNL     1      -9.897  12.410   3.954  0.00  0.00    +0.000 HD
ENDBRANCH   8  15
ENDBRANCH   4   7
ENDBRANCH   1   4
BRANCH   1  17
ATOM     17  C   UNL     1      -6.041  13.567   8.234  0.00  0.00    +0.000 C 
ATOM     18  C   UNL     1      -6.650  12.535   8.848  0.00  0.00    +0.000 C 
ATOM     19  H   UNL     1      -5.085  13.905   8.634  0.00  0.00    +0.000 HD
BRANCH  18  20
ATOM     20  C   UNL     1      -6.027  11.898  10.062  0.00  0.00    +0.000 C 
ATOM     21  H   UNL     1      -6.239  12.496  10.954  0.00  0.00    +0.000 HD
ATOM     22  H   UNL     1      -4.941  11.831   9.939  0.00  0.00    +0.000 HD
ATOM     23  H   UNL     1      -6.403  10.885  10.243  0.00  0.00    +0.000 HD
ENDBRANCH  18  20
BRANCH  18  24
ATOM     24  C   UNL     1      -7.962  11.931   8.437  0.00  0.00    +0.000 C 
ATOM     25  H   UNL     1      -8.408  11.396   9.281  0.00  0.00    +0.000 HD
ATOM     26  H   UNL     1      -7.886  11.222   7.610  0.00  0.00    +0.000 HD
ATOM     27  H   UNL     1      -8.656  12.720   8.125  0.00  0.00    +0.000 HD
ENDBRANCH  18  24
ENDBRANCH   1  17
TORSDOF 7
ENDMDL
MODEL 8
REMARK VINA RESULT:    -4.045     16.303     17.820
REMARK INTER + INTRA:          -5.989
REMARK INTER:                  -5.443
REMARK INTRA:                  -0.546
REMARK UNBOUND:                -0.643
REMARK  Name = 638011
REMARK  7 active torsions:
REMARK  status: ('A' for Active; 'I' for Inactive)
REMARK    1  A    between atoms: C_2  and  C_3
REMARK    2  A    between atoms: C_2  and  C_4
REMARK    3  A    between atoms: C_3  and  C_5
REMARK    4  A    between atoms: C_4  and  C_7
REMARK    5  A    between atoms: C_6  and  C_9
REMARK    6  A    between atoms: C_6  and  C_10
REMARK    7  A    between atoms: C_8  and  C_11
REMARK                            x       y       z     vdW  Elec       q    Type
REMARK                         _______ _______ _______ _____ _____    ______ ____
ROOT
ATOM      1  C   UNL     1      -8.751   3.654  -5.479  0.00  0.00    +0.000 C 
ATOM      2  H   UNL     1      -7.856   4.240  -5.256  0.00  0.00    +0.000 HD
ATOM      3  H   UNL     1      -8.806   2.883  -4.699  0.00  0.00    +0.000 HD
ENDROOT
BRANCH   1   4
ATOM      4  C   UNL     1      -9.992   4.550  -5.353  0.00  0.00    +0.000 C 
ATOM      5  H   UNL     1     -10.503   4.328  -4.408  0.00  0.00    +0.000 HD
ATOM      6  H   UNL     1     -10.702   4.291  -6.149  0.00  0.00    +0.000 HD
BRANCH   4   7
ATOM      7  C   UNL     1      -9.683   6.033  -5.410  0.00  0.00    +0.000 C 
ATOM      8  C   UNL     1     -10.559   7.010  -5.704  0.00  0.00    +0.000 C 
ATOM      9  H   UNL     1     -11.599   6.759  -5.894  0.00  0.00    +0.000 HD
BRANCH   7  10
ATOM     10  C   UNL     1      -8.260   6.395  -5.064  0.00  0.00    +0.000 C 
ATOM     11  H   UNL     1      -7.601   6.450  -5.937  0.00  0.00    +0.000 HD
ATOM     12  H   UNL     1      -7.844   5.679  -4.350  0.00  0.00    +0.000 HD
ATOM     13  H   UNL     1      -8.221   7.391  -4.607  0.00  0.00    +0.000 HD
ENDBRANCH   7  10
BRANCH   8  15
ATOM     14  O   UNL     1     -10.291   9.112  -6.752  0.00  0.00    +0.000 OA
ATOM     15  C   UNL     1     -10.246   8.455  -5.719  0.00  0.00    +0.000 C 
ATOM     16  H   UNL     1      -9.995   8.915  -4.750  0.00  0.00    +0.000 HD
ENDBRANCH   8  15
ENDBRANCH   4   7
ENDBRANCH   1   4
BRANCH   1  17
ATOM     17  C   UNL     1      -8.672   2.955  -6.808  0.00  0.00    +0.000 C 
ATOM     18  C   UNL     1      -7.933   3.293  -7.882  0.00  0.00    +0.000 C 
ATOM     19  H   UNL     1      -9.283   2.055  -6.874  0.00  0.00    +0.000 HD
BRANCH  18  20
ATOM     20  C   UNL     1      -7.981   2.456  -9.132  0.00  0.00    +0.000 C 
ATOM     21  H   UNL     1      -7.220   2.793  -9.843  0.00  0.00    +0.000 HD
ATOM     22  H   UNL     1      -8.964   2.542  -9.608  0.00  0.00    +0.000 HD
ATOM     23  H   UNL     1      -7.802   1.394  -8.932  0.00  0.00    +0.000 HD
ENDBRANCH  18  20
BRANCH  18  24
ATOM     24  C   UNL     1      -7.029   4.490  -7.973  0.00  0.00    +0.000 C 
ATOM     25  H   UNL     1      -6.482   4.617  -7.032  0.00  0.00    +0.000 HD
ATOM     26  H   UNL     1      -7.550   5.427  -8.173  0.00  0.00    +0.000 HD
ATOM     27  H   UNL     1      -6.298   4.346  -8.777  0.00  0.00    +0.000 HD
ENDBRANCH  18  24
ENDBRANCH   1  17
TORSDOF 7
ENDMDL
MODEL 9
REMARK VINA RESULT:    -4.001     15.807     17.450
REMARK INTER + INTRA:          -5.930
REMARK INTER:                  -5.240
REMARK INTRA:                  -0.690
REMARK UNBOUND:                -0.643
REMARK  Name = 638011
REMARK  7 active torsions:
REMARK  status: ('A' for Active; 'I' for Inactive)
REMARK    1  A    between atoms: C_2  and  C_3
REMARK    2  A    between atoms: C_2  and  C_4
REMARK    3  A    between atoms: C_3  and  C_5
REMARK    4  A    between atoms: C_4  and  C_7
REMARK    5  A    between atoms: C_6  and  C_9
REMARK    6  A    between atoms: C_6  and  C_10
REMARK    7  A    between atoms: C_8  and  C_11
REMARK                            x       y       z     vdW  Elec       q    Type
REMARK                         _______ _______ _______ _____ _____    ______ ____
ROOT
ATOM      1  C   UNL     1      12.260  -5.636   8.959  0.00  0.00    +0.000 C 
ATOM      2  H   UNL     1      11.805  -6.558   9.331  0.00  0.00    +0.000 HD
ATOM      3  H   UNL     1      13.341  -5.755   9.106  0.00  0.00    +0.000 HD
ENDROOT
BRANCH   1   4
ATOM      4  C   UNL     1      11.993  -5.508   7.452  0.00  0.00    +0.000 C 
ATOM      5  H   UNL     1      10.951  -5.203   7.295  0.00  0.00    +0.000 HD
ATOM      6  H   UNL     1      12.093  -6.496   6.985  0.00  0.00    +0.000 HD
BRANCH   4   7
ATOM      7  C   UNL     1      12.906  -4.520   6.753  0.00  0.00    +0.000 C 
ATOM      8  C   UNL     1      14.225  -4.678   6.543  0.00  0.00    +0.000 C 
ATOM      9  H   UNL     1      14.713  -5.595   6.861  0.00  0.00    +0.000 HD
BRANCH   7  10
ATOM     10  C   UNL     1      12.218  -3.282   6.234  0.00  0.00    +0.000 C 
ATOM     11  H   UNL     1      12.705  -2.352   6.543  0.00  0.00    +0.000 HD
ATOM     12  H   UNL     1      11.173  -3.259   6.558  0.00  0.00    +0.000 HD
ATOM     13  H   UNL     1      12.234  -3.268   5.138  0.00  0.00    +0.000 HD
ENDBRANCH   7  10
BRANCH   8  15
ATOM     14  O   UNL     1      15.568  -3.977   4.727  0.00  0.00    +0.000 OA
ATOM     15  C   UNL     1      15.091  -3.718   5.826  0.00  0.00    +0.000 C 
ATOM     16  H   UNL     1      15.266  -2.748   6.319  0.00  0.00    +0.000 HD
ENDBRANCH   8  15
ENDBRANCH   4   7
ENDBRANCH   1   4
BRANCH   1  17
ATOM     17  C   UNL     1      11.823  -4.421   9.731  0.00  0.00    +0.000 C 
ATOM     18  C   UNL     1      12.588  -3.419  10.204  0.00  0.00    +0.000 C 
ATOM     19  H   UNL     1      10.747  -4.360   9.892  0.00  0.00    +0.000 HD
BRANCH  18  20
ATOM     20  C   UNL     1      11.961  -2.273  10.952  0.00  0.00    +0.000 C 
ATOM     21  H   UNL     1      10.885  -2.234  10.751  0.00  0.00    +0.000 HD
ATOM     22  H   UNL     1      12.407  -1.324  10.636  0.00  0.00    +0.000 HD
ATOM     23  H   UNL     1      12.094  -2.357  12.036  0.00  0.00    +0.000 HD
ENDBRANCH  18  20
BRANCH  18  24
ATOM     24  C   UNL     1      14.082  -3.328  10.071  0.00  0.00    +0.000 C 
ATOM     25  H   UNL     1      14.368  -2.318   9.762  0.00  0.00    +0.000 HD
ATOM     26  H   UNL     1      14.506  -4.021   9.343  0.00  0.00    +0.000 HD
ATOM     27  H   UNL     1      14.556  -3.539  11.036  0.00  0.00    +0.000 HD
ENDBRANCH  18  24
ENDBRANCH   1  17
TORSDOF 7
ENDMDL
MODEL 10
REMARK VINA RESULT:    -3.970     16.561     18.077
REMARK INTER + INTRA:          -5.890
REMARK INTER:                  -5.246
REMARK INTRA:                  -0.643
REMARK UNBOUND:                -0.643
REMARK  Name = 638011
REMARK  7 active torsions:
REMARK  status: ('A' for Active; 'I' for Inactive)
REMARK    1  A    between atoms: C_2  and  C_3
REMARK    2  A    between atoms: C_2  and  C_4
REMARK    3  A    between atoms: C_3  and  C_5
REMARK    4  A    between atoms: C_4  and  C_7
REMARK    5  A    between atoms: C_6  and  C_9
REMARK    6  A    between atoms: C_6  and  C_10
REMARK    7  A    between atoms: C_8  and  C_11
REMARK                            x       y       z     vdW  Elec       q    Type
REMARK                         _______ _______ _______ _____ _____    ______ ____
ROOT
ATOM      1  C   UNL     1      -8.006   5.126  -5.083  0.00  0.00    +0.000 C 
ATOM      2  H   UNL     1      -7.108   5.190  -4.462  0.00  0.00    +0.000 HD
ATOM      3  H   UNL     1      -7.650   5.020  -6.115  0.00  0.00    +0.000 HD
ENDROOT
BRANCH   1   4
ATOM      4  C   UNL     1      -8.790   3.857  -4.716  0.00  0.00    +0.000 C 
ATOM      5  H   UNL     1      -9.364   4.041  -3.799  0.00  0.00    +0.000 HD
ATOM      6  H   UNL     1      -8.081   3.056  -4.473  0.00  0.00    +0.000 HD
BRANCH   4   7
ATOM      7  C   UNL     1      -9.736   3.388  -5.804  0.00  0.00    +0.000 C 
ATOM      8  C   UNL     1      -9.381   2.992  -7.039  0.00  0.00    +0.000 C 
ATOM      9  H   UNL     1      -8.330   2.962  -7.312  0.00  0.00    +0.000 HD
BRANCH   7  10
ATOM     10  C   UNL     1     -11.189   3.346  -5.403  0.00  0.00    +0.000 C 
ATOM     11  H   UNL     1     -11.405   2.603  -4.628  0.00  0.00    +0.000 HD
ATOM     12  H   UNL     1     -11.821   3.144  -6.273  0.00  0.00    +0.000 HD
ATOM     13  H   UNL     1     -11.495   4.308  -4.977  0.00  0.00    +0.000 HD
ENDBRANCH   7  10
BRANCH   8  15
ATOM     14  O   UNL     1      -9.950   1.745  -8.966  0.00  0.00    +0.000 OA
ATOM     15  C   UNL     1     -10.316   2.503  -8.075  0.00  0.00    +0.000 C 
ATOM     16  H   UNL     1     -11.363   2.835  -7.990  0.00  0.00    +0.000 HD
ENDBRANCH   8  15
ENDBRANCH   4   7
ENDBRANCH   1   4
BRANCH   1  17
ATOM     17  C   UNL     1      -8.849   6.369  -5.013  0.00  0.00    +0.000 C 
ATOM     18  C   UNL     1      -9.310   7.118  -6.033  0.00  0.00    +0.000 C 
ATOM     19  H   UNL     1      -9.123   6.664  -4.001  0.00  0.00    +0.000 HD
BRANCH  18  20
ATOM     20  C   UNL     1     -10.155   8.334  -5.761  0.00  0.00    +0.000 C 
ATOM     21  H   UNL     1     -11.212   8.105  -5.932  0.00  0.00    +0.000 HD
ATOM     22  H   UNL     1      -9.865   9.154  -6.427  0.00  0.00    +0.000 HD
ATOM     23  H   UNL     1     -10.055   8.692  -4.731  0.00  0.00    +0.000 HD
ENDBRANCH  18  20
BRANCH  18  24
ATOM     24  C   UNL     1      -9.043   6.862  -7.489  0.00  0.00    +0.000 C 
ATOM     25  H   UNL     1      -9.656   6.026  -7.841  0.00  0.00    +0.000 HD
ATOM     26  H   UNL     1      -8.004   6.617  -7.714  0.00  0.00    +0.000 HD
ATOM     27  H   UNL     1      -9.302   7.750  -8.078  0.00  0.00    +0.000 HD
ENDBRANCH  18  24
ENDBRANCH   1  17
TORSDOF 7
ENDMDL
