MODEL 1
REMARK VINA RESULT:    -6.374      0.000      0.000
REMARK INTER + INTRA:          -6.374
REMARK INTER:                  -6.374
REMARK INTRA:                   0.000
REMARK UNBOUND:                 0.000
REMARK  Name = 323
REMARK  0 active torsions:
REMARK  status: ('A' for Active; 'I' for Inactive)
REMARK                            x       y       z     vdW  Elec       q    Type
REMARK                         _______ _______ _______ _____ _____    ______ ____
ROOT
ATOM      1  O   UNL     1      -1.376   7.705 -12.349  0.00  0.00    +0.000 OA
ATOM      2  O   UNL     1      -0.148   8.646 -14.038  0.00  0.00    +0.000 OA
ATOM      3  C   UNL     1      -1.909   9.044 -10.386  0.00  0.00    +0.000 A 
ATOM      4  C   UNL     1      -1.986   7.841 -11.085  0.00  0.00    +0.000 A 
ATOM      5  C   UNL     1      -2.526   9.140  -9.137  0.00  0.00    +0.000 A 
ATOM      6  C   UNL     1      -1.188  10.155 -10.983  0.00  0.00    +0.000 A 
ATOM      7  C   UNL     1      -2.662   6.737 -10.570  0.00  0.00    +0.000 A 
ATOM      8  C   UNL     1      -3.208   8.040  -8.608  0.00  0.00    +0.000 A 
ATOM      9  C   UNL     1      -3.275   6.841  -9.323  0.00  0.00    +0.000 A 
ATOM     10  C   UNL     1      -0.613  10.018 -12.180  0.00  0.00    +0.000 A 
ATOM     11  C   UNL     1      -0.680   8.756 -12.940  0.00  0.00    +0.000 A 
ATOM     12  H   UNL     1      -2.486  10.064  -8.565  0.00  0.00    +0.000 HD
ATOM     13  H   UNL     1      -1.125  11.094 -10.442  0.00  0.00    +0.000 HD
ATOM     14  H   UNL     1      -2.713   5.806 -11.127  0.00  0.00    +0.000 HD
ATOM     15  H   UNL     1      -3.687   8.117  -7.637  0.00  0.00    +0.000 HD
ATOM     16  H   UNL     1      -3.806   5.991  -8.906  0.00  0.00    +0.000 HD
ATOM     17  H   UNL     1      -0.072  10.844 -12.631  0.00  0.00    +0.000 HD
ENDROOT
TORSDOF 0
ENDMDL
MODEL 2
REMARK VINA RESULT:    -6.335      1.046      2.116
REMARK INTER + INTRA:          -6.335
REMARK INTER:                  -6.335
REMARK INTRA:                   0.000
REMARK UNBOUND:                 0.000
REMARK  Name = 323
REMARK  0 active torsions:
REMARK  status: ('A' for Active; 'I' for Inactive)
REMARK                            x       y       z     vdW  Elec       q    Type
REMARK                         _______ _______ _______ _____ _____    ______ ____
ROOT
ATOM      1  O   UNL     1      -1.145   9.475 -11.326  0.00  0.00    +0.000 OA
ATOM      2  O   UNL     1       0.006   9.609 -13.301  0.00  0.00    +0.000 OA
ATOM      3  C   UNL     1      -2.320   7.415 -10.777  0.00  0.00    +0.000 A 
ATOM      4  C   UNL     1      -1.950   8.717 -10.451  0.00  0.00    +0.000 A 
ATOM      5  C   UNL     1      -3.118   6.695  -9.885  0.00  0.00    +0.000 A 
ATOM      6  C   UNL     1      -1.861   6.851 -12.036  0.00  0.00    +0.000 A 
ATOM      7  C   UNL     1      -2.355   9.317  -9.260  0.00  0.00    +0.000 A 
ATOM      8  C   UNL     1      -3.532   7.284  -8.688  0.00  0.00    +0.000 A 
ATOM      9  C   UNL     1      -3.152   8.592  -8.376  0.00  0.00    +0.000 A 
ATOM     10  C   UNL     1      -1.099   7.576 -12.859  0.00  0.00    +0.000 A 
ATOM     11  C   UNL     1      -0.694   8.957 -12.536  0.00  0.00    +0.000 A 
ATOM     12  H   UNL     1      -3.424   5.676 -10.109  0.00  0.00    +0.000 HD
ATOM     13  H   UNL     1      -2.147   5.837 -12.295  0.00  0.00    +0.000 HD
ATOM     14  H   UNL     1      -2.059  10.333  -9.020  0.00  0.00    +0.000 HD
ATOM     15  H   UNL     1      -4.153   6.722  -7.995  0.00  0.00    +0.000 HD
ATOM     16  H   UNL     1      -3.477   9.043  -7.443  0.00  0.00    +0.000 HD
ATOM     17  H   UNL     1      -0.754   7.162 -13.801  0.00  0.00    +0.000 HD
ENDROOT
TORSDOF 0
ENDMDL
MODEL 3
REMARK VINA RESULT:    -6.249     13.554     14.458
REMARK INTER + INTRA:          -6.249
REMARK INTER:                  -6.249
REMARK INTRA:                   0.000
REMARK UNBOUND:                 0.000
REMARK  Name = 323
REMARK  0 active torsions:
REMARK  status: ('A' for Active; 'I' for Inactive)
REMARK                            x       y       z     vdW  Elec       q    Type
REMARK                         _______ _______ _______ _____ _____    ______ ____
ROOT
ATOM      1  O   UNL     1       3.397  10.246   1.686  0.00  0.00    +0.000 OA
ATOM      2  O   UNL     1       2.723  12.008   0.387  0.00  0.00    +0.000 OA
ATOM      3  C   UNL     1       5.573   9.235   1.273  0.00  0.00    +0.000 A 
ATOM      4  C   UNL     1       4.383   9.286   1.994  0.00  0.00    +0.000 A 
ATOM      5  C   UNL     1       6.525   8.270   1.607  0.00  0.00    +0.000 A 
ATOM      6  C   UNL     1       5.781  10.190   0.196  0.00  0.00    +0.000 A 
ATOM      7  C   UNL     1       4.120   8.400   3.037  0.00  0.00    +0.000 A 
ATOM      8  C   UNL     1       6.275   7.375   2.651  0.00  0.00    +0.000 A 
ATOM      9  C   UNL     1       5.075   7.440   3.365  0.00  0.00    +0.000 A 
ATOM     10  C   UNL     1       4.842  11.096  -0.089  0.00  0.00    +0.000 A 
ATOM     11  C   UNL     1       3.574  11.170   0.660  0.00  0.00    +0.000 A 
ATOM     12  H   UNL     1       7.465   8.203   1.065  0.00  0.00    +0.000 HD
ATOM     13  H   UNL     1       6.706  10.154  -0.368  0.00  0.00    +0.000 HD
ATOM     14  H   UNL     1       3.187   8.453   3.590  0.00  0.00    +0.000 HD
ATOM     15  H   UNL     1       7.017   6.625   2.910  0.00  0.00    +0.000 HD
ATOM     16  H   UNL     1       4.888   6.742   4.175  0.00  0.00    +0.000 HD
ATOM     17  H   UNL     1       4.991  11.811  -0.891  0.00  0.00    +0.000 HD
ENDROOT
TORSDOF 0
ENDMDL
MODEL 4
REMARK VINA RESULT:    -6.243     13.373     14.188
REMARK INTER + INTRA:          -6.243
REMARK INTER:                  -6.243
REMARK INTRA:                   0.000
REMARK UNBOUND:                 0.000
REMARK  Name = 323
REMARK  0 active torsions:
REMARK  status: ('A' for Active; 'I' for Inactive)
REMARK                            x       y       z     vdW  Elec       q    Type
REMARK                         _______ _______ _______ _____ _____    ______ ____
ROOT
ATOM      1  O   UNL     1       4.967   9.321   1.389  0.00  0.00    +0.000 OA
ATOM      2  O   UNL     1       2.889   9.665   2.287  0.00  0.00    +0.000 OA
ATOM      3  C   UNL     1       5.784  10.850  -0.322  0.00  0.00    +0.000 A 
ATOM      4  C   UNL     1       5.971   9.731   0.486  0.00  0.00    +0.000 A 
ATOM      5  C   UNL     1       6.801  11.224  -1.203  0.00  0.00    +0.000 A 
ATOM      6  C   UNL     1       4.537  11.588  -0.218  0.00  0.00    +0.000 A 
ATOM      7  C   UNL     1       7.142   8.978   0.436  0.00  0.00    +0.000 A 
ATOM      8  C   UNL     1       7.981  10.478  -1.264  0.00  0.00    +0.000 A 
ATOM      9  C   UNL     1       8.152   9.358  -0.446  0.00  0.00    +0.000 A 
ATOM     10  C   UNL     1       3.592  11.194   0.639  0.00  0.00    +0.000 A 
ATOM     11  C   UNL     1       3.765  10.013   1.505  0.00  0.00    +0.000 A 
ATOM     12  H   UNL     1       6.689  12.092  -1.847  0.00  0.00    +0.000 HD
ATOM     13  H   UNL     1       4.387  12.461  -0.845  0.00  0.00    +0.000 HD
ATOM     14  H   UNL     1       7.273   8.108   1.072  0.00  0.00    +0.000 HD
ATOM     15  H   UNL     1       8.771  10.771  -1.950  0.00  0.00    +0.000 HD
ATOM     16  H   UNL     1       9.072   8.784  -0.499  0.00  0.00    +0.000 HD
ATOM     17  H   UNL     1       2.658  11.740   0.721  0.00  0.00    +0.000 HD
ENDROOT
TORSDOF 0
ENDMDL
MODEL 5
REMARK VINA RESULT:    -6.028      1.732      3.914
REMARK INTER + INTRA:          -6.028
REMARK INTER:                  -6.028
REMARK INTRA:                   0.000
REMARK UNBOUND:                 0.000
REMARK  Name = 323
REMARK  0 active torsions:
REMARK  status: ('A' for Active; 'I' for Inactive)
REMARK                            x       y       z     vdW  Elec       q    Type
REMARK                         _______ _______ _______ _____ _____    ______ ____
ROOT
ATOM      1  O   UNL     1      -2.742   6.769 -10.359  0.00  0.00    +0.000 OA
ATOM      2  O   UNL     1      -4.003   6.172  -8.544  0.00  0.00    +0.000 OA
ATOM      3  C   UNL     1      -1.828   9.022 -10.476  0.00  0.00    +0.000 A 
ATOM      4  C   UNL     1      -1.988   7.754 -11.029  0.00  0.00    +0.000 A 
ATOM      5  C   UNL     1      -1.074   9.972 -11.169  0.00  0.00    +0.000 A 
ATOM      6  C   UNL     1      -2.452   9.312  -9.195  0.00  0.00    +0.000 A 
ATOM      7  C   UNL     1      -1.416   7.412 -12.253  0.00  0.00    +0.000 A 
ATOM      8  C   UNL     1      -0.495   9.642 -12.398  0.00  0.00    +0.000 A 
ATOM      9  C   UNL     1      -0.666   8.365 -12.938  0.00  0.00    +0.000 A 
ATOM     10  C   UNL     1      -3.164   8.372  -8.568  0.00  0.00    +0.000 A 
ATOM     11  C   UNL     1      -3.348   7.023  -9.133  0.00  0.00    +0.000 A 
ATOM     12  H   UNL     1      -0.928  10.971 -10.766  0.00  0.00    +0.000 HD
ATOM     13  H   UNL     1      -2.330  10.298  -8.761  0.00  0.00    +0.000 HD
ATOM     14  H   UNL     1      -1.550   6.419 -12.671  0.00  0.00    +0.000 HD
ATOM     15  H   UNL     1       0.091  10.383 -12.935  0.00  0.00    +0.000 HD
ATOM     16  H   UNL     1      -0.213   8.116 -13.893  0.00  0.00    +0.000 HD
ATOM     17  H   UNL     1      -3.633   8.582  -7.612  0.00  0.00    +0.000 HD
ENDROOT
TORSDOF 0
ENDMDL
MODEL 6
REMARK VINA RESULT:    -5.965      1.963      4.371
REMARK INTER + INTRA:          -5.965
REMARK INTER:                  -5.965
REMARK INTRA:                   0.000
REMARK UNBOUND:                 0.000
REMARK  Name = 323
REMARK  0 active torsions:
REMARK  status: ('A' for Active; 'I' for Inactive)
REMARK                            x       y       z     vdW  Elec       q    Type
REMARK                         _______ _______ _______ _____ _____    ______ ____
ROOT
ATOM      1  O   UNL     1      -2.107   9.281  -9.651  0.00  0.00    +0.000 OA
ATOM      2  O   UNL     1      -3.295   8.907  -7.729  0.00  0.00    +0.000 OA
ATOM      3  C   UNL     1      -1.975   7.515 -11.323  0.00  0.00    +0.000 A 
ATOM      4  C   UNL     1      -1.650   8.800 -10.896  0.00  0.00    +0.000 A 
ATOM      5  C   UNL     1      -1.504   7.075 -12.562  0.00  0.00    +0.000 A 
ATOM      6  C   UNL     1      -2.795   6.678 -10.463  0.00  0.00    +0.000 A 
ATOM      7  C   UNL     1      -0.868   9.654 -11.672  0.00  0.00    +0.000 A 
ATOM      8  C   UNL     1      -0.718   7.921 -13.350  0.00  0.00    +0.000 A 
ATOM      9  C   UNL     1      -0.401   9.207 -12.906  0.00  0.00    +0.000 A 
ATOM     10  C   UNL     1      -3.224   7.141  -9.286  0.00  0.00    +0.000 A 
ATOM     11  C   UNL     1      -2.893   8.497  -8.812  0.00  0.00    +0.000 A 
ATOM     12  H   UNL     1      -1.740   6.079 -12.926  0.00  0.00    +0.000 HD
ATOM     13  H   UNL     1      -3.051   5.677 -10.792  0.00  0.00    +0.000 HD
ATOM     14  H   UNL     1      -0.623  10.653 -11.325  0.00  0.00    +0.000 HD
ATOM     15  H   UNL     1      -0.353   7.576 -14.314  0.00  0.00    +0.000 HD
ATOM     16  H   UNL     1       0.209   9.859 -13.525  0.00  0.00    +0.000 HD
ATOM     17  H   UNL     1      -3.835   6.521  -8.639  0.00  0.00    +0.000 HD
ENDROOT
TORSDOF 0
ENDMDL
MODEL 7
REMARK VINA RESULT:    -5.858     15.368     16.057
REMARK INTER + INTRA:          -5.858
REMARK INTER:                  -5.858
REMARK INTRA:                   0.000
REMARK UNBOUND:                 0.000
REMARK  Name = 323
REMARK  0 active torsions:
REMARK  status: ('A' for Active; 'I' for Inactive)
REMARK                            x       y       z     vdW  Elec       q    Type
REMARK                         _______ _______ _______ _____ _____    ______ ____
ROOT
ATOM      1  O   UNL     1       6.560   7.870   0.936  0.00  0.00    +0.000 OA
ATOM      2  O   UNL     1       7.214   8.722  -1.086  0.00  0.00    +0.000 OA
ATOM      3  C   UNL     1       7.515   8.796   2.975  0.00  0.00    +0.000 A 
ATOM      4  C   UNL     1       6.663   7.894   2.342  0.00  0.00    +0.000 A 
ATOM      5  C   UNL     1       7.589   8.790   4.370  0.00  0.00    +0.000 A 
ATOM      6  C   UNL     1       8.296   9.711   2.161  0.00  0.00    +0.000 A 
ATOM      7  C   UNL     1       5.886   6.990   3.064  0.00  0.00    +0.000 A 
ATOM      8  C   UNL     1       6.815   7.889   5.107  0.00  0.00    +0.000 A 
ATOM      9  C   UNL     1       5.966   6.991   4.455  0.00  0.00    +0.000 A 
ATOM     10  C   UNL     1       8.193   9.681   0.830  0.00  0.00    +0.000 A 
ATOM     11  C   UNL     1       7.299   8.737   0.136  0.00  0.00    +0.000 A 
ATOM     12  H   UNL     1       8.243   9.481   4.896  0.00  0.00    +0.000 HD
ATOM     13  H   UNL     1       8.961  10.415   2.650  0.00  0.00    +0.000 HD
ATOM     14  H   UNL     1       5.226   6.293   2.556  0.00  0.00    +0.000 HD
ATOM     15  H   UNL     1       6.875   7.886   6.191  0.00  0.00    +0.000 HD
ATOM     16  H   UNL     1       5.368   6.294   5.034  0.00  0.00    +0.000 HD
ATOM     17  H   UNL     1       8.775  10.361   0.215  0.00  0.00    +0.000 HD
ENDROOT
TORSDOF 0
ENDMDL
MODEL 8
REMARK VINA RESULT:    -5.489     14.035     14.789
REMARK INTER + INTRA:          -5.489
REMARK INTER:                  -5.489
REMARK INTRA:                   0.000
REMARK UNBOUND:                 0.000
REMARK  Name = 323
REMARK  0 active torsions:
REMARK  status: ('A' for Active; 'I' for Inactive)
REMARK                            x       y       z     vdW  Elec       q    Type
REMARK                         _______ _______ _______ _____ _____    ______ ____
ROOT
ATOM      1  O   UNL     1       5.353  10.306   0.468  0.00  0.00    +0.000 OA
ATOM      2  O   UNL     1       6.606  11.614  -0.931  0.00  0.00    +0.000 OA
ATOM      3  C   UNL     1       6.474   8.668   1.878  0.00  0.00    +0.000 A 
ATOM      4  C   UNL     1       5.305   9.286   1.442  0.00  0.00    +0.000 A 
ATOM      5  C   UNL     1       6.386   7.662   2.843  0.00  0.00    +0.000 A 
ATOM      6  C   UNL     1       7.744   9.092   1.313  0.00  0.00    +0.000 A 
ATOM      7  C   UNL     1       4.055   8.927   1.942  0.00  0.00    +0.000 A 
ATOM      8  C   UNL     1       5.139   7.291   3.354  0.00  0.00    +0.000 A 
ATOM      9  C   UNL     1       3.976   7.922   2.905  0.00  0.00    +0.000 A 
ATOM     10  C   UNL     1       7.780  10.059   0.392  0.00  0.00    +0.000 A 
ATOM     11  C   UNL     1       6.556  10.728  -0.086  0.00  0.00    +0.000 A 
ATOM     12  H   UNL     1       7.279   7.159   3.207  0.00  0.00    +0.000 HD
ATOM     13  H   UNL     1       8.657   8.614   1.650  0.00  0.00    +0.000 HD
ATOM     14  H   UNL     1       3.153   9.418   1.592  0.00  0.00    +0.000 HD
ATOM     15  H   UNL     1       5.074   6.509   4.105  0.00  0.00    +0.000 HD
ATOM     16  H   UNL     1       3.011   7.629   3.306  0.00  0.00    +0.000 HD
ATOM     17  H   UNL     1       8.725  10.380  -0.035  0.00  0.00    +0.000 HD
ENDROOT
TORSDOF 0
ENDMDL
MODEL 9
REMARK VINA RESULT:    -5.270     18.053     20.110
REMARK INTER + INTRA:          -5.270
REMARK INTER:                  -5.270
REMARK INTRA:                   0.000
REMARK UNBOUND:                 0.000
REMARK  Name = 323
REMARK  0 active torsions:
REMARK  status: ('A' for Active; 'I' for Inactive)
REMARK                            x       y       z     vdW  Elec       q    Type
REMARK                         _______ _______ _______ _____ _____    ______ ____
ROOT
ATOM      1  O   UNL     1      -8.258  11.999   8.690  0.00  0.00    +0.000 OA
ATOM      2  O   UNL     1      -9.310  10.939  10.426  0.00  0.00    +0.000 OA
ATOM      3  C   UNL     1      -8.303  10.979   6.479  0.00  0.00    +0.000 A 
ATOM      4  C   UNL     1      -7.909  12.014   7.323  0.00  0.00    +0.000 A 
ATOM      5  C   UNL     1      -7.938  11.029   5.132  0.00  0.00    +0.000 A 
ATOM      6  C   UNL     1      -9.080   9.882   7.032  0.00  0.00    +0.000 A 
ATOM      7  C   UNL     1      -7.163  13.095   6.858  0.00  0.00    +0.000 A 
ATOM      8  C   UNL     1      -7.190  12.107   4.652  0.00  0.00    +0.000 A 
ATOM      9  C   UNL     1      -6.803  13.138   5.513  0.00  0.00    +0.000 A 
ATOM     10  C   UNL     1      -9.407   9.875   8.326  0.00  0.00    +0.000 A 
ATOM     11  C   UNL     1      -9.002  10.959   9.240  0.00  0.00    +0.000 A 
ATOM     12  H   UNL     1      -8.230  10.239   4.445  0.00  0.00    +0.000 HD
ATOM     13  H   UNL     1      -9.389   9.074   6.378  0.00  0.00    +0.000 HD
ATOM     14  H   UNL     1      -6.863  13.895   7.529  0.00  0.00    +0.000 HD
ATOM     15  H   UNL     1      -6.907  12.145   3.603  0.00  0.00    +0.000 HD
ATOM     16  H   UNL     1      -6.221  13.972   5.132  0.00  0.00    +0.000 HD
ATOM     17  H   UNL     1      -9.986   9.059   8.746  0.00  0.00    +0.000 HD
ENDROOT
TORSDOF 0
ENDMDL
MODEL 10
REMARK VINA RESULT:    -5.204     32.927     34.916
REMARK INTER + INTRA:          -5.204
REMARK INTER:                  -5.204
REMARK INTRA:                   0.000
REMARK UNBOUND:                 0.000
REMARK  Name = 323
REMARK  0 active torsions:
REMARK  status: ('A' for Active; 'I' for Inactive)
REMARK                            x       y       z     vdW  Elec       q    Type
REMARK                         _______ _______ _______ _____ _____    ______ ____
ROOT
ATOM      1  O   UNL     1     -10.063 -10.917  15.011  0.00  0.00    +0.000 OA
ATOM      2  O   UNL     1      -8.569 -10.413  13.351  0.00  0.00    +0.000 OA
ATOM      3  C   UNL     1      -9.297 -12.170  16.953  0.00  0.00    +0.000 A 
ATOM      4  C   UNL     1     -10.317 -11.525  16.259  0.00  0.00    +0.000 A 
ATOM      5  C   UNL     1      -9.587 -12.760  18.185  0.00  0.00    +0.000 A 
ATOM      6  C   UNL     1      -7.966 -12.207  16.370  0.00  0.00    +0.000 A 
ATOM      7  C   UNL     1     -11.614 -11.453  16.761  0.00  0.00    +0.000 A 
ATOM      8  C   UNL     1     -10.884 -12.696  18.702  0.00  0.00    +0.000 A 
ATOM      9  C   UNL     1     -11.895 -12.044  17.992  0.00  0.00    +0.000 A 
ATOM     10  C   UNL     1      -7.735 -11.629  15.188  0.00  0.00    +0.000 A 
ATOM     11  C   UNL     1      -8.797 -10.940  14.434  0.00  0.00    +0.000 A 
ATOM     12  H   UNL     1      -8.814 -13.271  18.755  0.00  0.00    +0.000 HD
ATOM     13  H   UNL     1      -7.169 -12.708  16.907  0.00  0.00    +0.000 HD
ATOM     14  H   UNL     1     -12.399 -10.946  16.208  0.00  0.00    +0.000 HD
ATOM     15  H   UNL     1     -11.107 -13.155  19.661  0.00  0.00    +0.000 HD
ATOM     16  H   UNL     1     -12.900 -11.998  18.399  0.00  0.00    +0.000 HD
ATOM     17  H   UNL     1      -6.744 -11.653  14.746  0.00  0.00    +0.000 HD
ENDROOT
TORSDOF 0
ENDMDL
