MODEL 1
REMARK VINA RESULT:    -4.568      0.000      0.000
REMARK INTER + INTRA:          -4.568
REMARK INTER:                  -4.568
REMARK INTRA:                   0.000
REMARK UNBOUND:                 0.000
REMARK  Name = 7967
REMARK  0 active torsions:
REMARK  status: ('A' for Active; 'I' for Inactive)
REMARK                            x       y       z     vdW  Elec       q    Type
REMARK                         _______ _______ _______ _____ _____    ______ ____
ROOT
ATOM      1  O   UNL     1      -0.965  10.178 -10.323  0.00  0.00    +0.000 OA
ATOM      2  C   UNL     1      -3.392   6.902  -9.882  0.00  0.00    +0.000 C 
ATOM      3  C   UNL     1      -2.275   6.944 -10.922  0.00  0.00    +0.000 C 
ATOM      4  C   UNL     1      -3.091   7.846  -8.720  0.00  0.00    +0.000 C 
ATOM      5  C   UNL     1      -2.045   8.354 -11.447  0.00  0.00    +0.000 C 
ATOM      6  C   UNL     1      -2.880   9.276  -9.196  0.00  0.00    +0.000 C 
ATOM      7  C   UNL     1      -1.851   9.324 -10.302  0.00  0.00    +0.000 C 
ATOM      8  H   UNL     1      -4.345   7.180 -10.350  0.00  0.00    +0.000 HD
ATOM      9  H   UNL     1      -3.504   5.879  -9.505  0.00  0.00    +0.000 HD
ATOM     10  H   UNL     1      -2.520   6.277 -11.756  0.00  0.00    +0.000 HD
ATOM     11  H   UNL     1      -1.349   6.566 -10.470  0.00  0.00    +0.000 HD
ATOM     12  H   UNL     1      -2.191   7.497  -8.199  0.00  0.00    +0.000 HD
ATOM     13  H   UNL     1      -3.914   7.816  -7.996  0.00  0.00    +0.000 HD
ATOM     14  H   UNL     1      -2.900   8.696 -12.040  0.00  0.00    +0.000 HD
ATOM     15  H   UNL     1      -1.156   8.373 -12.087  0.00  0.00    +0.000 HD
ATOM     16  H   UNL     1      -2.539   9.899  -8.362  0.00  0.00    +0.000 HD
ATOM     17  H   UNL     1      -3.813   9.702  -9.581  0.00  0.00    +0.000 HD
ENDROOT
TORSDOF 0
ENDMDL
MODEL 2
REMARK VINA RESULT:    -4.374      1.515      2.607
REMARK INTER + INTRA:          -4.374
REMARK INTER:                  -4.374
REMARK INTRA:                   0.000
REMARK UNBOUND:                 0.000
REMARK  Name = 7967
REMARK  0 active torsions:
REMARK  status: ('A' for Active; 'I' for Inactive)
REMARK                            x       y       z     vdW  Elec       q    Type
REMARK                         _______ _______ _______ _____ _____    ______ ____
ROOT
ATOM      1  O   UNL     1      -1.454   6.693 -11.762  0.00  0.00    +0.000 OA
ATOM      2  C   UNL     1      -2.899   9.357  -9.000  0.00  0.00    +0.000 C 
ATOM      3  C   UNL     1      -3.097   7.851  -8.848  0.00  0.00    +0.000 C 
ATOM      4  C   UNL     1      -1.665   9.662  -9.847  0.00  0.00    +0.000 C 
ATOM      5  C   UNL     1      -3.212   7.157 -10.198  0.00  0.00    +0.000 C 
ATOM      6  C   UNL     1      -1.750   9.010 -11.220  0.00  0.00    +0.000 C 
ATOM      7  C   UNL     1      -2.052   7.534 -11.092  0.00  0.00    +0.000 C 
ATOM      8  H   UNL     1      -3.788   9.803  -9.462  0.00  0.00    +0.000 HD
ATOM      9  H   UNL     1      -2.786   9.814  -8.010  0.00  0.00    +0.000 HD
ATOM     10  H   UNL     1      -3.996   7.653  -8.255  0.00  0.00    +0.000 HD
ATOM     11  H   UNL     1      -2.248   7.431  -8.293  0.00  0.00    +0.000 HD
ATOM     12  H   UNL     1      -0.772   9.300  -9.325  0.00  0.00    +0.000 HD
ATOM     13  H   UNL     1      -1.554  10.747  -9.961  0.00  0.00    +0.000 HD
ATOM     14  H   UNL     1      -4.139   7.443 -10.707  0.00  0.00    +0.000 HD
ATOM     15  H   UNL     1      -3.220   6.070 -10.059  0.00  0.00    +0.000 HD
ATOM     16  H   UNL     1      -0.801   9.137 -11.751  0.00  0.00    +0.000 HD
ATOM     17  H   UNL     1      -2.542   9.467 -11.822  0.00  0.00    +0.000 HD
ENDROOT
TORSDOF 0
ENDMDL
MODEL 3
REMARK VINA RESULT:    -4.355      0.995      2.194
REMARK INTER + INTRA:          -4.355
REMARK INTER:                  -4.355
REMARK INTRA:                   0.000
REMARK UNBOUND:                 0.000
REMARK  Name = 7967
REMARK  0 active torsions:
REMARK  status: ('A' for Active; 'I' for Inactive)
REMARK                            x       y       z     vdW  Elec       q    Type
REMARK                         _______ _______ _______ _____ _____    ______ ____
ROOT
ATOM      1  O   UNL     1      -1.608   8.897 -12.475  0.00  0.00    +0.000 OA
ATOM      2  C   UNL     1      -3.097   7.859  -8.798  0.00  0.00    +0.000 C 
ATOM      3  C   UNL     1      -2.890   9.317  -9.202  0.00  0.00    +0.000 C 
ATOM      4  C   UNL     1      -3.294   6.975 -10.029  0.00  0.00    +0.000 C 
ATOM      5  C   UNL     1      -1.710   9.477 -10.150  0.00  0.00    +0.000 C 
ATOM      6  C   UNL     1      -2.123   7.083 -10.994  0.00  0.00    +0.000 C 
ATOM      7  C   UNL     1      -1.835   8.531 -11.323  0.00  0.00    +0.000 C 
ATOM      8  H   UNL     1      -2.232   7.507  -8.223  0.00  0.00    +0.000 HD
ATOM      9  H   UNL     1      -3.973   7.780  -8.145  0.00  0.00    +0.000 HD
ATOM     10  H   UNL     1      -2.730   9.929  -8.308  0.00  0.00    +0.000 HD
ATOM     11  H   UNL     1      -3.801   9.688  -9.687  0.00  0.00    +0.000 HD
ATOM     12  H   UNL     1      -4.218   7.272 -10.539  0.00  0.00    +0.000 HD
ATOM     13  H   UNL     1      -3.421   5.931  -9.718  0.00  0.00    +0.000 HD
ATOM     14  H   UNL     1      -0.765   9.262  -9.640  0.00  0.00    +0.000 HD
ATOM     15  H   UNL     1      -1.669  10.507 -10.523  0.00  0.00    +0.000 HD
ATOM     16  H   UNL     1      -2.352   6.544 -11.919  0.00  0.00    +0.000 HD
ATOM     17  H   UNL     1      -1.217   6.647 -10.560  0.00  0.00    +0.000 HD
ENDROOT
TORSDOF 0
ENDMDL
MODEL 4
REMARK VINA RESULT:    -4.233     12.628     12.957
REMARK INTER + INTRA:          -4.233
REMARK INTER:                  -4.233
REMARK INTRA:                   0.000
REMARK UNBOUND:                 0.000
REMARK  Name = 7967
REMARK  0 active torsions:
REMARK  status: ('A' for Active; 'I' for Inactive)
REMARK                            x       y       z     vdW  Elec       q    Type
REMARK                         _______ _______ _______ _____ _____    ______ ____
ROOT
ATOM      1  O   UNL     1       2.781  11.967   0.582  0.00  0.00    +0.000 OA
ATOM      2  C   UNL     1       6.020   9.521   0.001  0.00  0.00    +0.000 C 
ATOM      3  C   UNL     1       4.641   8.964   0.348  0.00  0.00    +0.000 C 
ATOM      4  C   UNL     1       5.903  10.882  -0.683  0.00  0.00    +0.000 C 
ATOM      5  C   UNL     1       3.852   9.921   1.230  0.00  0.00    +0.000 C 
ATOM      6  C   UNL     1       5.143  11.881   0.177  0.00  0.00    +0.000 C 
ATOM      7  C   UNL     1       3.817  11.304   0.619  0.00  0.00    +0.000 C 
ATOM      8  H   UNL     1       6.623   9.614   0.913  0.00  0.00    +0.000 HD
ATOM      9  H   UNL     1       6.542   8.821  -0.661  0.00  0.00    +0.000 HD
ATOM     10  H   UNL     1       4.748   7.999   0.855  0.00  0.00    +0.000 HD
ATOM     11  H   UNL     1       4.085   8.780  -0.580  0.00  0.00    +0.000 HD
ATOM     12  H   UNL     1       5.387  10.758  -1.642  0.00  0.00    +0.000 HD
ATOM     13  H   UNL     1       6.903  11.272  -0.904  0.00  0.00    +0.000 HD
ATOM     14  H   UNL     1       4.305  10.001   2.224  0.00  0.00    +0.000 HD
ATOM     15  H   UNL     1       2.826   9.556   1.351  0.00  0.00    +0.000 HD
ATOM     16  H   UNL     1       4.963  12.800  -0.391  0.00  0.00    +0.000 HD
ATOM     17  H   UNL     1       5.715  12.141   1.074  0.00  0.00    +0.000 HD
ENDROOT
TORSDOF 0
ENDMDL
MODEL 5
REMARK VINA RESULT:    -4.229      1.998      2.706
REMARK INTER + INTRA:          -4.229
REMARK INTER:                  -4.229
REMARK INTRA:                   0.000
REMARK UNBOUND:                 0.000
REMARK  Name = 7967
REMARK  0 active torsions:
REMARK  status: ('A' for Active; 'I' for Inactive)
REMARK                            x       y       z     vdW  Elec       q    Type
REMARK                         _______ _______ _______ _____ _____    ______ ____
ROOT
ATOM      1  O   UNL     1      -4.056   6.598  -8.706  0.00  0.00    +0.000 OA
ATOM      2  C   UNL     1      -2.036   9.312 -11.023  0.00  0.00    +0.000 C 
ATOM      3  C   UNL     1      -2.616   8.026 -11.608  0.00  0.00    +0.000 C 
ATOM      4  C   UNL     1      -2.795   9.730  -9.766  0.00  0.00    +0.000 C 
ATOM      5  C   UNL     1      -2.606   6.890 -10.594  0.00  0.00    +0.000 C 
ATOM      6  C   UNL     1      -2.788   8.633  -8.711  0.00  0.00    +0.000 C 
ATOM      7  C   UNL     1      -3.260   7.323  -9.301  0.00  0.00    +0.000 C 
ATOM      8  H   UNL     1      -0.975   9.165 -10.785  0.00  0.00    +0.000 HD
ATOM      9  H   UNL     1      -2.092  10.112 -11.769  0.00  0.00    +0.000 HD
ATOM     10  H   UNL     1      -2.046   7.732 -12.495  0.00  0.00    +0.000 HD
ATOM     11  H   UNL     1      -3.646   8.214 -11.936  0.00  0.00    +0.000 HD
ATOM     12  H   UNL     1      -3.830   9.971 -10.035  0.00  0.00    +0.000 HD
ATOM     13  H   UNL     1      -2.350  10.643  -9.351  0.00  0.00    +0.000 HD
ATOM     14  H   UNL     1      -1.581   6.577 -10.368  0.00  0.00    +0.000 HD
ATOM     15  H   UNL     1      -3.146   6.026 -10.998  0.00  0.00    +0.000 HD
ATOM     16  H   UNL     1      -3.446   8.910  -7.881  0.00  0.00    +0.000 HD
ATOM     17  H   UNL     1      -1.779   8.481  -8.312  0.00  0.00    +0.000 HD
ENDROOT
TORSDOF 0
ENDMDL
MODEL 6
REMARK VINA RESULT:    -4.227     12.875     13.252
REMARK INTER + INTRA:          -4.227
REMARK INTER:                  -4.227
REMARK INTRA:                   0.000
REMARK UNBOUND:                 0.000
REMARK  Name = 7967
REMARK  0 active torsions:
REMARK  status: ('A' for Active; 'I' for Inactive)
REMARK                            x       y       z     vdW  Elec       q    Type
REMARK                         _______ _______ _______ _____ _____    ______ ____
ROOT
ATOM      1  O   UNL     1       3.085   9.749   2.348  0.00  0.00    +0.000 OA
ATOM      2  C   UNL     1       5.739  10.803  -0.595  0.00  0.00    +0.000 C 
ATOM      3  C   UNL     1       4.930  11.846   0.173  0.00  0.00    +0.000 C 
ATOM      4  C   UNL     1       5.914   9.531   0.232  0.00  0.00    +0.000 C 
ATOM      5  C   UNL     1       3.568  11.308   0.591  0.00  0.00    +0.000 C 
ATOM      6  C   UNL     1       4.574   8.942   0.650  0.00  0.00    +0.000 C 
ATOM      7  C   UNL     1       3.715   9.991   1.320  0.00  0.00    +0.000 C 
ATOM      8  H   UNL     1       5.236  10.566  -1.540  0.00  0.00    +0.000 HD
ATOM      9  H   UNL     1       6.722  11.215  -0.847  0.00  0.00    +0.000 HD
ATOM     10  H   UNL     1       4.799  12.741  -0.444  0.00  0.00    +0.000 HD
ATOM     11  H   UNL     1       5.492  12.150   1.065  0.00  0.00    +0.000 HD
ATOM     12  H   UNL     1       6.506   9.762   1.125  0.00  0.00    +0.000 HD
ATOM     13  H   UNL     1       6.478   8.789  -0.345  0.00  0.00    +0.000 HD
ATOM     14  H   UNL     1       2.928  11.144  -0.282  0.00  0.00    +0.000 HD
ATOM     15  H   UNL     1       3.070  12.029   1.249  0.00  0.00    +0.000 HD
ATOM     16  H   UNL     1       4.733   8.112   1.346  0.00  0.00    +0.000 HD
ATOM     17  H   UNL     1       4.027   8.559  -0.218  0.00  0.00    +0.000 HD
ENDROOT
TORSDOF 0
ENDMDL
MODEL 7
REMARK VINA RESULT:    -3.981     13.388     14.079
REMARK INTER + INTRA:          -3.981
REMARK INTER:                  -3.981
REMARK INTRA:                   0.000
REMARK UNBOUND:                 0.000
REMARK  Name = 7967
REMARK  0 active torsions:
REMARK  status: ('A' for Active; 'I' for Inactive)
REMARK                            x       y       z     vdW  Elec       q    Type
REMARK                         _______ _______ _______ _____ _____    ______ ____
ROOT
ATOM      1  O   UNL     1       3.196  10.108   2.092  0.00  0.00    +0.000 OA
ATOM      2  C   UNL     1       6.587   7.916   1.375  0.00  0.00    +0.000 C 
ATOM      3  C   UNL     1       6.059   8.937   0.370  0.00  0.00    +0.000 C 
ATOM      4  C   UNL     1       6.132   8.260   2.792  0.00  0.00    +0.000 C 
ATOM      5  C   UNL     1       4.541   9.042   0.417  0.00  0.00    +0.000 C 
ATOM      6  C   UNL     1       4.616   8.349   2.892  0.00  0.00    +0.000 C 
ATOM      7  C   UNL     1       4.065   9.277   1.833  0.00  0.00    +0.000 C 
ATOM      8  H   UNL     1       6.234   6.913   1.105  0.00  0.00    +0.000 HD
ATOM      9  H   UNL     1       7.682   7.895   1.336  0.00  0.00    +0.000 HD
ATOM     10  H   UNL     1       6.379   8.662  -0.640  0.00  0.00    +0.000 HD
ATOM     11  H   UNL     1       6.500   9.918   0.590  0.00  0.00    +0.000 HD
ATOM     12  H   UNL     1       6.575   9.219   3.088  0.00  0.00    +0.000 HD
ATOM     13  H   UNL     1       6.504   7.504   3.494  0.00  0.00    +0.000 HD
ATOM     14  H   UNL     1       4.074   8.122   0.049  0.00  0.00    +0.000 HD
ATOM     15  H   UNL     1       4.206   9.871  -0.217  0.00  0.00    +0.000 HD
ATOM     16  H   UNL     1       4.330   8.723   3.881  0.00  0.00    +0.000 HD
ATOM     17  H   UNL     1       4.157   7.364   2.753  0.00  0.00    +0.000 HD
ENDROOT
TORSDOF 0
ENDMDL
MODEL 8
REMARK VINA RESULT:    -3.928     16.629     17.787
REMARK INTER + INTRA:          -3.928
REMARK INTER:                  -3.928
REMARK INTRA:                   0.000
REMARK UNBOUND:                 0.000
REMARK  Name = 7967
REMARK  0 active torsions:
REMARK  status: ('A' for Active; 'I' for Inactive)
REMARK                            x       y       z     vdW  Elec       q    Type
REMARK                         _______ _______ _______ _____ _____    ______ ____
ROOT
ATOM      1  O   UNL     1      -8.268  13.424   8.144  0.00  0.00    +0.000 OA
ATOM      2  C   UNL     1      -7.232  11.599   4.621  0.00  0.00    +0.000 C 
ATOM      3  C   UNL     1      -8.452  11.161   5.428  0.00  0.00    +0.000 C 
ATOM      4  C   UNL     1      -6.885  13.059   4.907  0.00  0.00    +0.000 C 
ATOM      5  C   UNL     1      -8.241  11.360   6.922  0.00  0.00    +0.000 C 
ATOM      6  C   UNL     1      -6.638  13.300   6.389  0.00  0.00    +0.000 C 
ATOM      7  C   UNL     1      -7.792  12.775   7.214  0.00  0.00    +0.000 C 
ATOM      8  H   UNL     1      -6.376  10.959   4.865  0.00  0.00    +0.000 HD
ATOM      9  H   UNL     1      -7.435  11.473   3.552  0.00  0.00    +0.000 HD
ATOM     10  H   UNL     1      -8.672  10.107   5.224  0.00  0.00    +0.000 HD
ATOM     11  H   UNL     1      -9.325  11.740   5.102  0.00  0.00    +0.000 HD
ATOM     12  H   UNL     1      -7.708  13.697   4.565  0.00  0.00    +0.000 HD
ATOM     13  H   UNL     1      -5.995  13.347   4.334  0.00  0.00    +0.000 HD
ATOM     14  H   UNL     1      -7.477  10.676   7.305  0.00  0.00    +0.000 HD
ATOM     15  H   UNL     1      -9.176  11.162   7.460  0.00  0.00    +0.000 HD
ATOM     16  H   UNL     1      -6.522  14.372   6.578  0.00  0.00    +0.000 HD
ATOM     17  H   UNL     1      -5.726  12.793   6.721  0.00  0.00    +0.000 HD
ENDROOT
TORSDOF 0
ENDMDL
MODEL 9
REMARK VINA RESULT:    -3.927     12.223     12.895
REMARK INTER + INTRA:          -3.927
REMARK INTER:                  -3.927
REMARK INTRA:                   0.000
REMARK UNBOUND:                 0.000
REMARK  Name = 7967
REMARK  0 active torsions:
REMARK  status: ('A' for Active; 'I' for Inactive)
REMARK                            x       y       z     vdW  Elec       q    Type
REMARK                         _______ _______ _______ _____ _____    ______ ____
ROOT
ATOM      1  O   UNL     1       6.461   8.484  -0.348  0.00  0.00    +0.000 OA
ATOM      2  C   UNL     1       3.532  11.197   0.590  0.00  0.00    +0.000 C 
ATOM      3  C   UNL     1       4.163  11.139  -0.799  0.00  0.00    +0.000 C 
ATOM      4  C   UNL     1       3.635   9.844   1.293  0.00  0.00    +0.000 C 
ATOM      5  C   UNL     1       5.618  10.694  -0.741  0.00  0.00    +0.000 C 
ATOM      6  C   UNL     1       5.078   9.372   1.399  0.00  0.00    +0.000 C 
ATOM      7  C   UNL     1       5.752   9.409   0.045  0.00  0.00    +0.000 C 
ATOM      8  H   UNL     1       4.030  11.967   1.192  0.00  0.00    +0.000 HD
ATOM      9  H   UNL     1       2.479  11.486   0.503  0.00  0.00    +0.000 HD
ATOM     10  H   UNL     1       4.097  12.122  -1.277  0.00  0.00    +0.000 HD
ATOM     11  H   UNL     1       3.592  10.439  -1.423  0.00  0.00    +0.000 HD
ATOM     12  H   UNL     1       3.049   9.105   0.735  0.00  0.00    +0.000 HD
ATOM     13  H   UNL     1       3.196   9.913   2.295  0.00  0.00    +0.000 HD
ATOM     14  H   UNL     1       6.240  11.455  -0.257  0.00  0.00    +0.000 HD
ATOM     15  H   UNL     1       6.000  10.536  -1.756  0.00  0.00    +0.000 HD
ATOM     16  H   UNL     1       5.108   8.349   1.786  0.00  0.00    +0.000 HD
ATOM     17  H   UNL     1       5.650  10.012   2.080  0.00  0.00    +0.000 HD
ENDROOT
TORSDOF 0
ENDMDL
MODEL 10
REMARK VINA RESULT:    -3.860     15.531     16.293
REMARK INTER + INTRA:          -3.860
REMARK INTER:                  -3.860
REMARK INTRA:                   0.000
REMARK UNBOUND:                 0.000
REMARK  Name = 7967
REMARK  0 active torsions:
REMARK  status: ('A' for Active; 'I' for Inactive)
REMARK                            x       y       z     vdW  Elec       q    Type
REMARK                         _______ _______ _______ _____ _____    ______ ____
ROOT
ATOM      1  O   UNL     1       5.337   8.608   1.562  0.00  0.00    +0.000 OA
ATOM      2  C   UNL     1       6.965   7.549   5.174  0.00  0.00    +0.000 C 
ATOM      3  C   UNL     1       7.421   8.795   4.418  0.00  0.00    +0.000 C 
ATOM      4  C   UNL     1       5.535   7.172   4.791  0.00  0.00    +0.000 C 
ATOM      5  C   UNL     1       7.320   8.608   2.910  0.00  0.00    +0.000 C 
ATOM      6  C   UNL     1       5.393   6.948   3.292  0.00  0.00    +0.000 C 
ATOM      7  C   UNL     1       5.939   8.130   2.523  0.00  0.00    +0.000 C 
ATOM      8  H   UNL     1       7.641   6.714   4.955  0.00  0.00    +0.000 HD
ATOM      9  H   UNL     1       7.019   7.735   6.252  0.00  0.00    +0.000 HD
ATOM     10  H   UNL     1       8.454   9.036   4.691  0.00  0.00    +0.000 HD
ATOM     11  H   UNL     1       6.801   9.647   4.722  0.00  0.00    +0.000 HD
ATOM     12  H   UNL     1       4.856   7.973   5.107  0.00  0.00    +0.000 HD
ATOM     13  H   UNL     1       5.235   6.265   5.329  0.00  0.00    +0.000 HD
ATOM     14  H   UNL     1       8.047   7.868   2.558  0.00  0.00    +0.000 HD
ATOM     15  H   UNL     1       7.527   9.557   2.403  0.00  0.00    +0.000 HD
ATOM     16  H   UNL     1       4.338   6.809   3.035  0.00  0.00    +0.000 HD
ATOM     17  H   UNL     1       5.943   6.055   2.977  0.00  0.00    +0.000 HD
ENDROOT
TORSDOF 0
ENDMDL
