MODEL 1
REMARK VINA RESULT:    -4.492      0.000      0.000
REMARK INTER + INTRA:          -7.437
REMARK INTER:                  -6.654
REMARK INTRA:                  -0.783
REMARK UNBOUND:                -0.713
REMARK  Name = 8175
REMARK  9 active torsions:
REMARK  status: ('A' for Active; 'I' for Inactive)
REMARK    1  A    between atoms: C_2  and  C_3
REMARK    2  A    between atoms: C_2  and  C_4
REMARK    3  A    between atoms: C_3  and  C_5
REMARK    4  A    between atoms: C_4  and  C_6
REMARK    5  A    between atoms: C_5  and  C_7
REMARK    6  A    between atoms: C_6  and  C_8
REMARK    7  A    between atoms: C_7  and  C_9
REMARK    8  A    between atoms: C_8  and  C_10
REMARK    9  A    between atoms: C_9  and  C_11
REMARK                            x       y       z     vdW  Elec       q    Type
REMARK                         _______ _______ _______ _____ _____    ______ ____
ROOT
ATOM      1  C   UNL     1      -2.763   9.691  -9.881  0.00  0.00    +0.000 C 
ATOM      2  H   UNL     1      -3.330   9.556 -10.809  0.00  0.00    +0.000 HD
ATOM      3  H   UNL     1      -3.187  10.561  -9.365  0.00  0.00    +0.000 HD
ENDROOT
BRANCH   1   4
ATOM      4  C   UNL     1      -1.291   9.954 -10.209  0.00  0.00    +0.000 C 
ATOM      5  H   UNL     1      -0.668   9.155  -9.788  0.00  0.00    +0.000 HD
ATOM      6  H   UNL     1      -0.972  10.894  -9.741  0.00  0.00    +0.000 HD
BRANCH   4   7
ATOM      7  C   UNL     1      -1.067  10.037 -11.721  0.00  0.00    +0.000 C 
ATOM      8  H   UNL     1      -2.037  10.102 -12.228  0.00  0.00    +0.000 HD
ATOM      9  H   UNL     1      -0.524  10.962 -11.954  0.00  0.00    +0.000 HD
BRANCH   7  10
ATOM     10  C   UNL     1      -0.286   8.847 -12.284  0.00  0.00    +0.000 C 
ATOM     11  H   UNL     1       0.781   8.981 -12.069  0.00  0.00    +0.000 HD
ATOM     12  H   UNL     1      -0.594   7.934 -11.759  0.00  0.00    +0.000 HD
BRANCH  10  13
ATOM     13  C   UNL     1      -0.475   8.657 -13.787  0.00  0.00    +0.000 C 
ATOM     14  H   UNL     1      -0.426   7.595 -14.048  0.00  0.00    +0.000 HD
ATOM     15  H   UNL     1      -1.452   9.041 -14.100  0.00  0.00    +0.000 HD
BRANCH  13  17
ATOM     16  O   UNL     1       0.991   9.009 -15.693  0.00  0.00    +0.000 OA
ATOM     17  C   UNL     1       0.578   9.376 -14.598  0.00  0.00    +0.000 C 
ATOM     18  H   UNL     1       0.969  10.298 -14.134  0.00  0.00    +0.000 HD
ENDBRANCH  13  17
ENDBRANCH  10  13
ENDBRANCH   7  10
ENDBRANCH   4   7
ENDBRANCH   1   4
BRANCH   1  19
ATOM     19  C   UNL     1      -2.920   8.450  -8.999  0.00  0.00    +0.000 C 
ATOM     20  H   UNL     1      -3.842   8.534  -8.410  0.00  0.00    +0.000 HD
ATOM     21  H   UNL     1      -2.090   8.413  -8.282  0.00  0.00    +0.000 HD
BRANCH  19  22
ATOM     22  C   UNL     1      -2.957   7.141  -9.792  0.00  0.00    +0.000 C 
ATOM     23  H   UNL     1      -1.978   6.974 -10.258  0.00  0.00    +0.000 HD
ATOM     24  H   UNL     1      -3.121   6.309  -9.096  0.00  0.00    +0.000 HD
BRANCH  22  25
ATOM     25  C   UNL     1      -4.042   7.113 -10.870  0.00  0.00    +0.000 C 
ATOM     26  H   UNL     1      -4.596   8.059 -10.862  0.00  0.00    +0.000 HD
ATOM     27  H   UNL     1      -4.760   6.313 -10.653  0.00  0.00    +0.000 HD
BRANCH  25  28
ATOM     28  C   UNL     1      -3.446   6.886 -12.251  0.00  0.00    +0.000 C 
ATOM     29  H   UNL     1      -2.460   6.417 -12.164  0.00  0.00    +0.000 HD
ATOM     30  H   UNL     1      -4.084   6.229 -12.850  0.00  0.00    +0.000 HD
ATOM     31  H   UNL     1      -3.326   7.833 -12.788  0.00  0.00    +0.000 HD
ENDBRANCH  25  28
ENDBRANCH  22  25
ENDBRANCH  19  22
ENDBRANCH   1  19
TORSDOF 9
ENDMDL
MODEL 2
REMARK VINA RESULT:    -4.348      1.574      2.783
REMARK INTER + INTRA:          -7.222
REMARK INTER:                  -6.355
REMARK INTRA:                  -0.867
REMARK UNBOUND:                -0.713
REMARK  Name = 8175
REMARK  9 active torsions:
REMARK  status: ('A' for Active; 'I' for Inactive)
REMARK    1  A    between atoms: C_2  and  C_3
REMARK    2  A    between atoms: C_2  and  C_4
REMARK    3  A    between atoms: C_3  and  C_5
REMARK    4  A    between atoms: C_4  and  C_6
REMARK    5  A    between atoms: C_5  and  C_7
REMARK    6  A    between atoms: C_6  and  C_8
REMARK    7  A    between atoms: C_7  and  C_9
REMARK    8  A    between atoms: C_8  and  C_10
REMARK    9  A    between atoms: C_9  and  C_11
REMARK                            x       y       z     vdW  Elec       q    Type
REMARK                         _______ _______ _______ _____ _____    ______ ____
ROOT
ATOM      1  C   UNL     1      -3.082   7.081  -9.820  0.00  0.00    +0.000 C 
ATOM      2  H   UNL     1      -2.514   6.199  -9.505  0.00  0.00    +0.000 HD
ATOM      3  H   UNL     1      -2.567   7.505 -10.691  0.00  0.00    +0.000 HD
ENDROOT
BRANCH   1   4
ATOM      4  C   UNL     1      -3.107   8.111  -8.687  0.00  0.00    +0.000 C 
ATOM      5  H   UNL     1      -2.764   7.645  -7.755  0.00  0.00    +0.000 HD
ATOM      6  H   UNL     1      -4.137   8.449  -8.519  0.00  0.00    +0.000 HD
BRANCH   4   7
ATOM      7  C   UNL     1      -2.223   9.316  -9.014  0.00  0.00    +0.000 C 
ATOM      8  H   UNL     1      -2.483  10.149  -8.349  0.00  0.00    +0.000 HD
ATOM      9  H   UNL     1      -1.176   9.061  -8.807  0.00  0.00    +0.000 HD
BRANCH   7  10
ATOM     10  C   UNL     1      -2.344   9.780 -10.468  0.00  0.00    +0.000 C 
ATOM     11  H   UNL     1      -2.779   8.972 -11.069  0.00  0.00    +0.000 HD
ATOM     12  H   UNL     1      -3.050  10.618 -10.520  0.00  0.00    +0.000 HD
BRANCH  10  13
ATOM     13  C   UNL     1      -1.010  10.200 -11.082  0.00  0.00    +0.000 C 
ATOM     14  H   UNL     1      -1.054  11.242 -11.415  0.00  0.00    +0.000 HD
ATOM     15  H   UNL     1      -0.207  10.110 -10.343  0.00  0.00    +0.000 HD
BRANCH  13  17
ATOM     16  O   UNL     1      -0.193   8.210 -12.211  0.00  0.00    +0.000 OA
ATOM     17  C   UNL     1      -0.631   9.354 -12.274  0.00  0.00    +0.000 C 
ATOM     18  H   UNL     1      -0.783   9.839 -13.255  0.00  0.00    +0.000 HD
ENDBRANCH  13  17
ENDBRANCH  10  13
ENDBRANCH   7  10
ENDBRANCH   4   7
ENDBRANCH   1   4
BRANCH   1  19
ATOM     19  C   UNL     1      -4.499   6.664 -10.221  0.00  0.00    +0.000 C 
ATOM     20  H   UNL     1      -5.227   7.292  -9.693  0.00  0.00    +0.000 HD
ATOM     21  H   UNL     1      -4.674   5.632  -9.893  0.00  0.00    +0.000 HD
BRANCH  19  22
ATOM     22  C   UNL     1      -4.758   6.762 -11.727  0.00  0.00    +0.000 C 
ATOM     23  H   UNL     1      -5.305   5.871 -12.058  0.00  0.00    +0.000 HD
ATOM     24  H   UNL     1      -5.412   7.622 -11.919  0.00  0.00    +0.000 HD
BRANCH  22  25
ATOM     25  C   UNL     1      -3.481   6.910 -12.555  0.00  0.00    +0.000 C 
ATOM     26  H   UNL     1      -3.185   5.934 -12.958  0.00  0.00    +0.000 HD
ATOM     27  H   UNL     1      -2.662   7.260 -11.916  0.00  0.00    +0.000 HD
BRANCH  25  28
ATOM     28  C   UNL     1      -3.674   7.893 -13.700  0.00  0.00    +0.000 C 
ATOM     29  H   UNL     1      -2.724   8.061 -14.219  0.00  0.00    +0.000 HD
ATOM     30  H   UNL     1      -4.396   7.510 -14.428  0.00  0.00    +0.000 HD
ATOM     31  H   UNL     1      -4.035   8.859 -13.332  0.00  0.00    +0.000 HD
ENDBRANCH  25  28
ENDBRANCH  22  25
ENDBRANCH  19  22
ENDBRANCH   1  19
TORSDOF 9
ENDMDL
MODEL 3
REMARK VINA RESULT:    -4.325     14.013     15.483
REMARK INTER + INTRA:          -7.187
REMARK INTER:                  -6.524
REMARK INTRA:                  -0.664
REMARK UNBOUND:                -0.713
REMARK  Name = 8175
REMARK  9 active torsions:
REMARK  status: ('A' for Active; 'I' for Inactive)
REMARK    1  A    between atoms: C_2  and  C_3
REMARK    2  A    between atoms: C_2  and  C_4
REMARK    3  A    between atoms: C_3  and  C_5
REMARK    4  A    between atoms: C_4  and  C_6
REMARK    5  A    between atoms: C_5  and  C_7
REMARK    6  A    between atoms: C_6  and  C_8
REMARK    7  A    between atoms: C_7  and  C_9
REMARK    8  A    between atoms: C_8  and  C_10
REMARK    9  A    between atoms: C_9  and  C_11
REMARK                            x       y       z     vdW  Elec       q    Type
REMARK                         _______ _______ _______ _____ _____    ______ ____
ROOT
ATOM      1  C   UNL     1       7.609   9.463   0.326  0.00  0.00    +0.000 C 
ATOM      2  H   UNL     1       8.695   9.467   0.181  0.00  0.00    +0.000 HD
ATOM      3  H   UNL     1       7.186   8.759  -0.400  0.00  0.00    +0.000 HD
ENDROOT
BRANCH   1   4
ATOM      4  C   UNL     1       7.048  10.866   0.070  0.00  0.00    +0.000 C 
ATOM      5  H   UNL     1       7.873  11.580  -0.043  0.00  0.00    +0.000 HD
ATOM      6  H   UNL     1       6.456  11.189   0.934  0.00  0.00    +0.000 HD
BRANCH   4   7
ATOM      7  C   UNL     1       6.173  10.890  -1.185  0.00  0.00    +0.000 C 
ATOM      8  H   UNL     1       6.411  11.782  -1.777  0.00  0.00    +0.000 HD
ATOM      9  H   UNL     1       6.414  10.020  -1.810  0.00  0.00    +0.000 HD
BRANCH   7  10
ATOM     10  C   UNL     1       4.673  10.880  -0.879  0.00  0.00    +0.000 C 
ATOM     11  H   UNL     1       4.172  11.632  -1.503  0.00  0.00    +0.000 HD
ATOM     12  H   UNL     1       4.253   9.909  -1.170  0.00  0.00    +0.000 HD
BRANCH  10  13
ATOM     13  C   UNL     1       4.353  11.153   0.589  0.00  0.00    +0.000 C 
ATOM     14  H   UNL     1       5.275  11.301   1.160  0.00  0.00    +0.000 HD
ATOM     15  H   UNL     1       3.743  12.059   0.682  0.00  0.00    +0.000 HD
BRANCH  13  17
ATOM     16  O   UNL     1       3.180  10.023   2.391  0.00  0.00    +0.000 OA
ATOM     17  C   UNL     1       3.590  10.021   1.236  0.00  0.00    +0.000 C 
ATOM     18  H   UNL     1       3.405   9.153   0.579  0.00  0.00    +0.000 HD
ENDBRANCH  13  17
ENDBRANCH  10  13
ENDBRANCH   7  10
ENDBRANCH   4   7
ENDBRANCH   1   4
BRANCH   1  19
ATOM     19  C   UNL     1       7.282   8.988   1.744  0.00  0.00    +0.000 C 
ATOM     20  H   UNL     1       6.795   9.800   2.298  0.00  0.00    +0.000 HD
ATOM     21  H   UNL     1       8.218   8.764   2.271  0.00  0.00    +0.000 HD
BRANCH  19  22
ATOM     22  C   UNL     1       6.379   7.752   1.778  0.00  0.00    +0.000 C 
ATOM     23  H   UNL     1       5.403   8.007   1.349  0.00  0.00    +0.000 HD
ATOM     24  H   UNL     1       6.814   6.977   1.135  0.00  0.00    +0.000 HD
BRANCH  22  25
ATOM     25  C   UNL     1       6.181   7.182   3.184  0.00  0.00    +0.000 C 
ATOM     26  H   UNL     1       7.128   6.777   3.556  0.00  0.00    +0.000 HD
ATOM     27  H   UNL     1       5.462   6.355   3.152  0.00  0.00    +0.000 HD
BRANCH  25  28
ATOM     28  C   UNL     1       5.672   8.246   4.146  0.00  0.00    +0.000 C 
ATOM     29  H   UNL     1       4.820   8.776   3.707  0.00  0.00    +0.000 HD
ATOM     30  H   UNL     1       5.344   7.797   5.088  0.00  0.00    +0.000 HD
ATOM     31  H   UNL     1       6.452   8.982   4.367  0.00  0.00    +0.000 HD
ENDBRANCH  25  28
ENDBRANCH  22  25
ENDBRANCH  19  22
ENDBRANCH   1  19
TORSDOF 9
ENDMDL
MODEL 4
REMARK VINA RESULT:    -4.207      1.425      3.064
REMARK INTER + INTRA:          -7.010
REMARK INTER:                  -6.331
REMARK INTRA:                  -0.679
REMARK UNBOUND:                -0.713
REMARK  Name = 8175
REMARK  9 active torsions:
REMARK  status: ('A' for Active; 'I' for Inactive)
REMARK    1  A    between atoms: C_2  and  C_3
REMARK    2  A    between atoms: C_2  and  C_4
REMARK    3  A    between atoms: C_3  and  C_5
REMARK    4  A    between atoms: C_4  and  C_6
REMARK    5  A    between atoms: C_5  and  C_7
REMARK    6  A    between atoms: C_6  and  C_8
REMARK    7  A    between atoms: C_7  and  C_9
REMARK    8  A    between atoms: C_8  and  C_10
REMARK    9  A    between atoms: C_9  and  C_11
REMARK                            x       y       z     vdW  Elec       q    Type
REMARK                         _______ _______ _______ _____ _____    ______ ____
ROOT
ATOM      1  C   UNL     1      -4.939   6.716 -11.272  0.00  0.00    +0.000 C 
ATOM      2  H   UNL     1      -5.001   5.723 -11.730  0.00  0.00    +0.000 HD
ATOM      3  H   UNL     1      -5.911   7.203 -11.418  0.00  0.00    +0.000 HD
ENDROOT
BRANCH   1   4
ATOM      4  C   UNL     1      -3.844   7.536 -11.961  0.00  0.00    +0.000 C 
ATOM      5  H   UNL     1      -3.026   7.730 -11.256  0.00  0.00    +0.000 HD
ATOM      6  H   UNL     1      -4.248   8.510 -12.263  0.00  0.00    +0.000 HD
BRANCH   4   7
ATOM      7  C   UNL     1      -3.299   6.807 -13.191  0.00  0.00    +0.000 C 
ATOM      8  H   UNL     1      -3.625   5.760 -13.167  0.00  0.00    +0.000 HD
ATOM      9  H   UNL     1      -3.732   7.253 -14.095  0.00  0.00    +0.000 HD
BRANCH   7  10
ATOM     10  C   UNL     1      -1.772   6.853 -13.296  0.00  0.00    +0.000 C 
ATOM     11  H   UNL     1      -1.389   5.833 -13.427  0.00  0.00    +0.000 HD
ATOM     12  H   UNL     1      -1.491   7.406 -14.201  0.00  0.00    +0.000 HD
BRANCH  10  13
ATOM     13  C   UNL     1      -1.100   7.488 -12.081  0.00  0.00    +0.000 C 
ATOM     14  H   UNL     1      -1.853   7.869 -11.384  0.00  0.00    +0.000 HD
ATOM     15  H   UNL     1      -0.489   6.747 -11.555  0.00  0.00    +0.000 HD
BRANCH  13  17
ATOM     16  O   UNL     1       0.053   8.990 -13.603  0.00  0.00    +0.000 OA
ATOM     17  C   UNL     1      -0.199   8.641 -12.455  0.00  0.00    +0.000 C 
ATOM     18  H   UNL     1       0.237   9.185 -11.599  0.00  0.00    +0.000 HD
ENDBRANCH  13  17
ENDBRANCH  10  13
ENDBRANCH   7  10
ENDBRANCH   4   7
ENDBRANCH   1   4
BRANCH   1  19
ATOM     19  C   UNL     1      -4.662   6.573  -9.773  0.00  0.00    +0.000 C 
ATOM     20  H   UNL     1      -4.855   5.539  -9.463  0.00  0.00    +0.000 HD
ATOM     21  H   UNL     1      -5.366   7.206  -9.217  0.00  0.00    +0.000 HD
BRANCH  19  22
ATOM     22  C   UNL     1      -3.231   6.951  -9.380  0.00  0.00    +0.000 C 
ATOM     23  H   UNL     1      -2.753   6.093  -8.892  0.00  0.00    +0.000 HD
ATOM     24  H   UNL     1      -2.656   7.156 -10.292  0.00  0.00    +0.000 HD
BRANCH  22  25
ATOM     25  C   UNL     1      -3.155   8.167  -8.456  0.00  0.00    +0.000 C 
ATOM     26  H   UNL     1      -2.629   7.899  -7.533  0.00  0.00    +0.000 HD
ATOM     27  H   UNL     1      -4.167   8.483  -8.175  0.00  0.00    +0.000 HD
BRANCH  25  28
ATOM     28  C   UNL     1      -2.439   9.329  -9.128  0.00  0.00    +0.000 C 
ATOM     29  H   UNL     1      -2.767   9.425 -10.169  0.00  0.00    +0.000 HD
ATOM     30  H   UNL     1      -2.656  10.272  -8.616  0.00  0.00    +0.000 HD
ATOM     31  H   UNL     1      -1.355   9.177  -9.126  0.00  0.00    +0.000 HD
ENDBRANCH  25  28
ENDBRANCH  22  25
ENDBRANCH  19  22
ENDBRANCH   1  19
TORSDOF 9
ENDMDL
MODEL 5
REMARK VINA RESULT:    -4.124      5.107      7.578
REMARK INTER + INTRA:          -6.886
REMARK INTER:                  -6.497
REMARK INTRA:                  -0.388
REMARK UNBOUND:                -0.713
REMARK  Name = 8175
REMARK  9 active torsions:
REMARK  status: ('A' for Active; 'I' for Inactive)
REMARK    1  A    between atoms: C_2  and  C_3
REMARK    2  A    between atoms: C_2  and  C_4
REMARK    3  A    between atoms: C_3  and  C_5
REMARK    4  A    between atoms: C_4  and  C_6
REMARK    5  A    between atoms: C_5  and  C_7
REMARK    6  A    between atoms: C_6  and  C_8
REMARK    7  A    between atoms: C_7  and  C_9
REMARK    8  A    between atoms: C_8  and  C_10
REMARK    9  A    between atoms: C_9  and  C_11
REMARK                            x       y       z     vdW  Elec       q    Type
REMARK                         _______ _______ _______ _____ _____    ______ ____
ROOT
ATOM      1  C   UNL     1      -4.077   7.103 -10.526  0.00  0.00    +0.000 C 
ATOM      2  H   UNL     1      -4.311   8.116 -10.872  0.00  0.00    +0.000 HD
ATOM      3  H   UNL     1      -3.542   6.598 -11.339  0.00  0.00    +0.000 HD
ENDROOT
BRANCH   1   4
ATOM      4  C   UNL     1      -5.374   6.349 -10.218  0.00  0.00    +0.000 C 
ATOM      5  H   UNL     1      -5.424   5.435 -10.822  0.00  0.00    +0.000 HD
ATOM      6  H   UNL     1      -6.235   6.969 -10.497  0.00  0.00    +0.000 HD
BRANCH   4   7
ATOM      7  C   UNL     1      -5.465   5.990  -8.733  0.00  0.00    +0.000 C 
ATOM      8  H   UNL     1      -4.622   5.342  -8.464  0.00  0.00    +0.000 HD
ATOM      9  H   UNL     1      -5.368   6.904  -8.135  0.00  0.00    +0.000 HD
BRANCH   7  10
ATOM     10  C   UNL     1      -6.773   5.288  -8.358  0.00  0.00    +0.000 C 
ATOM     11  H   UNL     1      -7.199   4.815  -9.253  0.00  0.00    +0.000 HD
ATOM     12  H   UNL     1      -6.556   4.475  -7.655  0.00  0.00    +0.000 HD
BRANCH  10  13
ATOM     13  C   UNL     1      -7.811   6.227  -7.747  0.00  0.00    +0.000 C 
ATOM     14  H   UNL     1      -7.466   7.264  -7.802  0.00  0.00    +0.000 HD
ATOM     15  H   UNL     1      -8.758   6.151  -8.291  0.00  0.00    +0.000 HD
BRANCH  13  17
ATOM     16  O   UNL     1      -8.188   6.750  -5.405  0.00  0.00    +0.000 OA
ATOM     17  C   UNL     1      -8.091   5.914  -6.296  0.00  0.00    +0.000 C 
ATOM     18  H   UNL     1      -8.219   4.840  -6.070  0.00  0.00    +0.000 HD
ENDBRANCH  13  17
ENDBRANCH  10  13
ENDBRANCH   7  10
ENDBRANCH   4   7
ENDBRANCH   1   4
BRANCH   1  19
ATOM     19  C   UNL     1      -3.174   7.178  -9.293  0.00  0.00    +0.000 C 
ATOM     20  H   UNL     1      -2.230   6.659  -9.499  0.00  0.00    +0.000 HD
ATOM     21  H   UNL     1      -3.654   6.642  -8.465  0.00  0.00    +0.000 HD
BRANCH  19  22
ATOM     22  C   UNL     1      -2.865   8.611  -8.851  0.00  0.00    +0.000 C 
ATOM     23  H   UNL     1      -3.636   8.946  -8.147  0.00  0.00    +0.000 HD
ATOM     24  H   UNL     1      -1.914   8.617  -8.305  0.00  0.00    +0.000 HD
BRANCH  22  25
ATOM     25  C   UNL     1      -2.780   9.600 -10.015  0.00  0.00    +0.000 C 
ATOM     26  H   UNL     1      -3.337  10.511  -9.769  0.00  0.00    +0.000 HD
ATOM     27  H   UNL     1      -3.245   9.164 -10.908  0.00  0.00    +0.000 HD
BRANCH  25  28
ATOM     28  C   UNL     1      -1.335   9.959 -10.331  0.00  0.00    +0.000 C 
ATOM     29  H   UNL     1      -0.653   9.281  -9.807  0.00  0.00    +0.000 HD
ATOM     30  H   UNL     1      -1.137   9.878 -11.405  0.00  0.00    +0.000 HD
ATOM     31  H   UNL     1      -1.106  10.982 -10.015  0.00  0.00    +0.000 HD
ENDBRANCH  25  28
ENDBRANCH  22  25
ENDBRANCH  19  22
ENDBRANCH   1  19
TORSDOF 9
ENDMDL
MODEL 6
REMARK VINA RESULT:    -4.110     26.161     28.455
REMARK INTER + INTRA:          -6.866
REMARK INTER:                  -6.385
REMARK INTRA:                  -0.481
REMARK UNBOUND:                -0.713
REMARK  Name = 8175
REMARK  9 active torsions:
REMARK  status: ('A' for Active; 'I' for Inactive)
REMARK    1  A    between atoms: C_2  and  C_3
REMARK    2  A    between atoms: C_2  and  C_4
REMARK    3  A    between atoms: C_3  and  C_5
REMARK    4  A    between atoms: C_4  and  C_6
REMARK    5  A    between atoms: C_5  and  C_7
REMARK    6  A    between atoms: C_6  and  C_8
REMARK    7  A    between atoms: C_7  and  C_9
REMARK    8  A    between atoms: C_8  and  C_10
REMARK    9  A    between atoms: C_9  and  C_11
REMARK                            x       y       z     vdW  Elec       q    Type
REMARK                         _______ _______ _______ _____ _____    ______ ____
ROOT
ATOM      1  C   UNL     1     -20.494  -3.720   5.469  0.00  0.00    +0.000 C 
ATOM      2  H   UNL     1     -21.373  -4.242   5.865  0.00  0.00    +0.000 HD
ATOM      3  H   UNL     1     -19.913  -3.364   6.328  0.00  0.00    +0.000 HD
ENDROOT
BRANCH   1   4
ATOM      4  C   UNL     1     -20.941  -2.527   4.619  0.00  0.00    +0.000 C 
ATOM      5  H   UNL     1     -22.001  -2.634   4.359  0.00  0.00    +0.000 HD
ATOM      6  H   UNL     1     -20.376  -2.513   3.679  0.00  0.00    +0.000 HD
BRANCH   4   7
ATOM      7  C   UNL     1     -20.725  -1.207   5.362  0.00  0.00    +0.000 C 
ATOM      8  H   UNL     1     -19.993  -0.598   4.817  0.00  0.00    +0.000 HD
ATOM      9  H   UNL     1     -21.665  -0.641   5.371  0.00  0.00    +0.000 HD
BRANCH   7  10
ATOM     10  C   UNL     1     -20.244  -1.394   6.804  0.00  0.00    +0.000 C 
ATOM     11  H   UNL     1     -20.148  -2.466   7.015  0.00  0.00    +0.000 HD
ATOM     12  H   UNL     1     -19.239  -0.968   6.905  0.00  0.00    +0.000 HD
BRANCH  10  13
ATOM     13  C   UNL     1     -21.172  -0.761   7.838  0.00  0.00    +0.000 C 
ATOM     14  H   UNL     1     -20.630  -0.566   8.769  0.00  0.00    +0.000 HD
ATOM     15  H   UNL     1     -21.564   0.191   7.465  0.00  0.00    +0.000 HD
BRANCH  13  17
ATOM     16  O   UNL     1     -22.300  -2.654   8.860  0.00  0.00    +0.000 OA
ATOM     17  C   UNL     1     -22.353  -1.641   8.171  0.00  0.00    +0.000 C 
ATOM     18  H   UNL     1     -23.316  -1.304   7.749  0.00  0.00    +0.000 HD
ENDBRANCH  13  17
ENDBRANCH  10  13
ENDBRANCH   7  10
ENDBRANCH   4   7
ENDBRANCH   1   4
BRANCH   1  19
ATOM     19  C   UNL     1     -19.644  -4.695   4.651  0.00  0.00    +0.000 C 
ATOM     20  H   UNL     1     -19.974  -5.723   4.849  0.00  0.00    +0.000 HD
ATOM     21  H   UNL     1     -18.601  -4.628   4.985  0.00  0.00    +0.000 HD
BRANCH  19  22
ATOM     22  C   UNL     1     -19.705  -4.437   3.143  0.00  0.00    +0.000 C 
ATOM     23  H   UNL     1     -20.748  -4.498   2.808  0.00  0.00    +0.000 HD
ATOM     24  H   UNL     1     -19.369  -3.412   2.945  0.00  0.00    +0.000 HD
BRANCH  22  25
ATOM     25  C   UNL     1     -18.853  -5.409   2.325  0.00  0.00    +0.000 C 
ATOM     26  H   UNL     1     -19.334  -5.601   1.359  0.00  0.00    +0.000 HD
ATOM     27  H   UNL     1     -18.779  -6.369   2.849  0.00  0.00    +0.000 HD
BRANCH  25  28
ATOM     28  C   UNL     1     -17.453  -4.859   2.094  0.00  0.00    +0.000 C 
ATOM     29  H   UNL     1     -17.414  -4.310   1.146  0.00  0.00    +0.000 HD
ATOM     30  H   UNL     1     -17.165  -4.173   2.896  0.00  0.00    +0.000 HD
ATOM     31  H   UNL     1     -16.716  -5.667   2.049  0.00  0.00    +0.000 HD
ENDBRANCH  25  28
ENDBRANCH  22  25
ENDBRANCH  19  22
ENDBRANCH   1  19
TORSDOF 9
ENDMDL
MODEL 7
REMARK VINA RESULT:    -4.017      2.335      3.546
REMARK INTER + INTRA:          -6.727
REMARK INTER:                  -6.193
REMARK INTRA:                  -0.534
REMARK UNBOUND:                -0.713
REMARK  Name = 8175
REMARK  9 active torsions:
REMARK  status: ('A' for Active; 'I' for Inactive)
REMARK    1  A    between atoms: C_2  and  C_3
REMARK    2  A    between atoms: C_2  and  C_4
REMARK    3  A    between atoms: C_3  and  C_5
REMARK    4  A    between atoms: C_4  and  C_6
REMARK    5  A    between atoms: C_5  and  C_7
REMARK    6  A    between atoms: C_6  and  C_8
REMARK    7  A    between atoms: C_7  and  C_9
REMARK    8  A    between atoms: C_8  and  C_10
REMARK    9  A    between atoms: C_9  and  C_11
REMARK                            x       y       z     vdW  Elec       q    Type
REMARK                         _______ _______ _______ _____ _____    ______ ____
ROOT
ATOM      1  C   UNL     1      -3.394   6.868 -12.701  0.00  0.00    +0.000 C 
ATOM      2  H   UNL     1      -3.786   6.003 -13.248  0.00  0.00    +0.000 HD
ATOM      3  H   UNL     1      -3.709   7.767 -13.245  0.00  0.00    +0.000 HD
ENDROOT
BRANCH   1   4
ATOM      4  C   UNL     1      -1.864   6.802 -12.659  0.00  0.00    +0.000 C 
ATOM      5  H   UNL     1      -1.522   5.855 -13.091  0.00  0.00    +0.000 HD
ATOM      6  H   UNL     1      -1.523   6.825 -11.616  0.00  0.00    +0.000 HD
BRANCH   4   7
ATOM      7  C   UNL     1      -1.239   7.971 -13.424  0.00  0.00    +0.000 C 
ATOM      8  H   UNL     1      -0.146   7.889 -13.382  0.00  0.00    +0.000 HD
ATOM      9  H   UNL     1      -1.522   7.902 -14.482  0.00  0.00    +0.000 HD
BRANCH   7  10
ATOM     10  C   UNL     1      -1.658   9.342 -12.886  0.00  0.00    +0.000 C 
ATOM     11  H   UNL     1      -1.819  10.026 -13.729  0.00  0.00    +0.000 HD
ATOM     12  H   UNL     1      -2.624   9.248 -12.377  0.00  0.00    +0.000 HD
BRANCH  10  13
ATOM     13  C   UNL     1      -0.637   9.955 -11.931  0.00  0.00    +0.000 C 
ATOM     14  H   UNL     1       0.177   9.250 -11.736  0.00  0.00    +0.000 HD
ATOM     15  H   UNL     1      -0.206  10.863 -12.368  0.00  0.00    +0.000 HD
BRANCH  13  17
ATOM     16  O   UNL     1      -1.388   9.568  -9.654  0.00  0.00    +0.000 OA
ATOM     17  C   UNL     1      -1.243  10.333 -10.600  0.00  0.00    +0.000 C 
ATOM     18  H   UNL     1      -1.557  11.389 -10.517  0.00  0.00    +0.000 HD
ENDBRANCH  13  17
ENDBRANCH  10  13
ENDBRANCH   7  10
ENDBRANCH   4   7
ENDBRANCH   1   4
BRANCH   1  19
ATOM     19  C   UNL     1      -3.986   6.894 -11.290  0.00  0.00    +0.000 C 
ATOM     20  H   UNL     1      -4.685   6.057 -11.172  0.00  0.00    +0.000 HD
ATOM     21  H   UNL     1      -4.570   7.814 -11.164  0.00  0.00    +0.000 HD
BRANCH  19  22
ATOM     22  C   UNL     1      -2.928   6.816 -10.186  0.00  0.00    +0.000 C 
ATOM     23  H   UNL     1      -2.237   5.993 -10.405  0.00  0.00    +0.000 HD
ATOM     24  H   UNL     1      -2.335   7.739 -10.197  0.00  0.00    +0.000 HD
BRANCH  22  25
ATOM     25  C   UNL     1      -3.521   6.620  -8.789  0.00  0.00    +0.000 C 
ATOM     26  H   UNL     1      -3.377   7.530  -8.195  0.00  0.00    +0.000 HD
ATOM     27  H   UNL     1      -2.996   5.808  -8.273  0.00  0.00    +0.000 HD
BRANCH  25  28
ATOM     28  C   UNL     1      -5.004   6.289  -8.859  0.00  0.00    +0.000 C 
ATOM     29  H   UNL     1      -5.462   6.784  -9.722  0.00  0.00    +0.000 HD
ATOM     30  H   UNL     1      -5.160   5.211  -8.962  0.00  0.00    +0.000 HD
ATOM     31  H   UNL     1      -5.525   6.628  -7.958  0.00  0.00    +0.000 HD
ENDBRANCH  25  28
ENDBRANCH  22  25
ENDBRANCH  19  22
ENDBRANCH   1  19
TORSDOF 9
ENDMDL
MODEL 8
REMARK VINA RESULT:    -3.984     26.794     27.827
REMARK INTER + INTRA:          -6.677
REMARK INTER:                  -6.185
REMARK INTRA:                  -0.492
REMARK UNBOUND:                -0.713
REMARK  Name = 8175
REMARK  9 active torsions:
REMARK  status: ('A' for Active; 'I' for Inactive)
REMARK    1  A    between atoms: C_2  and  C_3
REMARK    2  A    between atoms: C_2  and  C_4
REMARK    3  A    between atoms: C_3  and  C_5
REMARK    4  A    between atoms: C_4  and  C_6
REMARK    5  A    between atoms: C_5  and  C_7
REMARK    6  A    between atoms: C_6  and  C_8
REMARK    7  A    between atoms: C_7  and  C_9
REMARK    8  A    between atoms: C_8  and  C_10
REMARK    9  A    between atoms: C_9  and  C_11
REMARK                            x       y       z     vdW  Elec       q    Type
REMARK                         _______ _______ _______ _____ _____    ______ ____
ROOT
ATOM      1  C   UNL     1     -21.960  -2.523   3.887  0.00  0.00    +0.000 C 
ATOM      2  H   UNL     1     -22.855  -3.155   3.906  0.00  0.00    +0.000 HD
ATOM      3  H   UNL     1     -22.113  -1.765   3.109  0.00  0.00    +0.000 HD
ENDROOT
BRANCH   1   4
ATOM      4  C   UNL     1     -20.734  -3.374   3.543  0.00  0.00    +0.000 C 
ATOM      5  H   UNL     1     -19.890  -2.722   3.288  0.00  0.00    +0.000 HD
ATOM      6  H   UNL     1     -20.948  -3.987   2.659  0.00  0.00    +0.000 HD
BRANCH   4   7
ATOM      7  C   UNL     1     -20.346  -4.283   4.711  0.00  0.00    +0.000 C 
ATOM      8  H   UNL     1     -20.015  -3.667   5.556  0.00  0.00    +0.000 HD
ATOM      9  H   UNL     1     -21.234  -4.834   5.049  0.00  0.00    +0.000 HD
BRANCH   7  10
ATOM     10  C   UNL     1     -19.243  -5.285   4.360  0.00  0.00    +0.000 C 
ATOM     11  H   UNL     1     -18.373  -5.105   5.004  0.00  0.00    +0.000 HD
ATOM     12  H   UNL     1     -19.592  -6.299   4.591  0.00  0.00    +0.000 HD
BRANCH  10  13
ATOM     13  C   UNL     1     -18.807  -5.218   2.899  0.00  0.00    +0.000 C 
ATOM     14  H   UNL     1     -19.174  -4.299   2.432  0.00  0.00    +0.000 HD
ATOM     15  H   UNL     1     -17.714  -5.225   2.828  0.00  0.00    +0.000 HD
BRANCH  13  17
ATOM     16  O   UNL     1     -20.422  -6.424   1.542  0.00  0.00    +0.000 OA
ATOM     17  C   UNL     1     -19.324  -6.382   2.086  0.00  0.00    +0.000 C 
ATOM     18  H   UNL     1     -18.624  -7.231   1.996  0.00  0.00    +0.000 HD
ENDBRANCH  13  17
ENDBRANCH  10  13
ENDBRANCH   7  10
ENDBRANCH   4   7
ENDBRANCH   1   4
BRANCH   1  19
ATOM     19  C   UNL     1     -21.791  -1.832   5.242  0.00  0.00    +0.000 C 
ATOM     20  H   UNL     1     -21.529  -2.578   6.003  0.00  0.00    +0.000 HD
ATOM     21  H   UNL     1     -22.752  -1.396   5.544  0.00  0.00    +0.000 HD
BRANCH  19  22
ATOM     22  C   UNL     1     -20.723  -0.735   5.236  0.00  0.00    +0.000 C 
ATOM     23  H   UNL     1     -19.928  -1.009   4.532  0.00  0.00    +0.000 HD
ATOM     24  H   UNL     1     -21.170   0.194   4.861  0.00  0.00    +0.000 HD
BRANCH  22  25
ATOM     25  C   UNL     1     -20.111  -0.474   6.614  0.00  0.00    +0.000 C 
ATOM     26  H   UNL     1     -19.934   0.599   6.744  0.00  0.00    +0.000 HD
ATOM     27  H   UNL     1     -19.140  -0.977   6.690  0.00  0.00    +0.000 HD
BRANCH  25  28
ATOM     28  C   UNL     1     -21.020  -0.976   7.727  0.00  0.00    +0.000 C 
ATOM     29  H   UNL     1     -22.064  -0.962   7.398  0.00  0.00    +0.000 HD
ATOM     30  H   UNL     1     -20.766  -2.003   8.007  0.00  0.00    +0.000 HD
ATOM     31  H   UNL     1     -20.936  -0.346   8.618  0.00  0.00    +0.000 HD
ENDBRANCH  25  28
ENDBRANCH  22  25
ENDBRANCH  19  22
ENDBRANCH   1  19
TORSDOF 9
ENDMDL
MODEL 9
REMARK VINA RESULT:    -3.859     27.772     28.968
REMARK INTER + INTRA:          -6.490
REMARK INTER:                  -5.777
REMARK INTRA:                  -0.713
REMARK UNBOUND:                -0.713
REMARK  Name = 8175
REMARK  9 active torsions:
REMARK  status: ('A' for Active; 'I' for Inactive)
REMARK    1  A    between atoms: C_2  and  C_3
REMARK    2  A    between atoms: C_2  and  C_4
REMARK    3  A    between atoms: C_3  and  C_5
REMARK    4  A    between atoms: C_4  and  C_6
REMARK    5  A    between atoms: C_5  and  C_7
REMARK    6  A    between atoms: C_6  and  C_8
REMARK    7  A    between atoms: C_7  and  C_9
REMARK    8  A    between atoms: C_8  and  C_10
REMARK    9  A    between atoms: C_9  and  C_11
REMARK                            x       y       z     vdW  Elec       q    Type
REMARK                         _______ _______ _______ _____ _____    ______ ____
ROOT
ATOM      1  C   UNL     1     -23.476  -2.006   6.012  0.00  0.00    +0.000 C 
ATOM      2  H   UNL     1     -24.549  -1.938   5.800  0.00  0.00    +0.000 HD
ATOM      3  H   UNL     1     -23.018  -1.068   5.674  0.00  0.00    +0.000 HD
ENDROOT
BRANCH   1   4
ATOM      4  C   UNL     1     -22.870  -3.182   5.240  0.00  0.00    +0.000 C 
ATOM      5  H   UNL     1     -23.665  -3.739   4.730  0.00  0.00    +0.000 HD
ATOM      6  H   UNL     1     -22.388  -3.874   5.941  0.00  0.00    +0.000 HD
BRANCH   4   7
ATOM      7  C   UNL     1     -21.843  -2.700   4.214  0.00  0.00    +0.000 C 
ATOM      8  H   UNL     1     -22.243  -2.844   3.203  0.00  0.00    +0.000 HD
ATOM      9  H   UNL     1     -21.685  -1.621   4.342  0.00  0.00    +0.000 HD
BRANCH   7  10
ATOM     10  C   UNL     1     -20.494  -3.416   4.323  0.00  0.00    +0.000 C 
ATOM     11  H   UNL     1     -19.779  -2.945   3.636  0.00  0.00    +0.000 HD
ATOM     12  H   UNL     1     -20.091  -3.270   5.333  0.00  0.00    +0.000 HD
BRANCH  10  13
ATOM     13  C   UNL     1     -20.574  -4.909   4.018  0.00  0.00    +0.000 C 
ATOM     14  H   UNL     1     -21.265  -5.404   4.708  0.00  0.00    +0.000 HD
ATOM     15  H   UNL     1     -20.938  -5.069   2.997  0.00  0.00    +0.000 HD
BRANCH  13  17
ATOM     16  O   UNL     1     -18.518  -5.567   5.132  0.00  0.00    +0.000 OA
ATOM     17  C   UNL     1     -19.235  -5.598   4.138  0.00  0.00    +0.000 C 
ATOM     18  H   UNL     1     -18.924  -6.165   3.243  0.00  0.00    +0.000 HD
ENDBRANCH  13  17
ENDBRANCH  10  13
ENDBRANCH   7  10
ENDBRANCH   4   7
ENDBRANCH   1   4
BRANCH   1  19
ATOM     19  C   UNL     1     -23.259  -2.163   7.519  0.00  0.00    +0.000 C 
ATOM     20  H   UNL     1     -23.696  -3.111   7.854  0.00  0.00    +0.000 HD
ATOM     21  H   UNL     1     -23.797  -1.363   8.043  0.00  0.00    +0.000 HD
BRANCH  19  22
ATOM     22  C   UNL     1     -21.784  -2.125   7.928  0.00  0.00    +0.000 C 
ATOM     23  H   UNL     1     -21.684  -2.498   8.954  0.00  0.00    +0.000 HD
ATOM     24  H   UNL     1     -21.220  -2.814   7.286  0.00  0.00    +0.000 HD
BRANCH  22  25
ATOM     25  C   UNL     1     -21.162  -0.731   7.832  0.00  0.00    +0.000 C 
ATOM     26  H   UNL     1     -20.749  -0.441   8.806  0.00  0.00    +0.000 HD
ATOM     27  H   UNL     1     -21.935   0.004   7.575  0.00  0.00    +0.000 HD
BRANCH  25  28
ATOM     28  C   UNL     1     -20.063  -0.685   6.782  0.00  0.00    +0.000 C 
ATOM     29  H   UNL     1     -20.016   0.310   6.326  0.00  0.00    +0.000 HD
ATOM     30  H   UNL     1     -19.087  -0.902   7.226  0.00  0.00    +0.000 HD
ATOM     31  H   UNL     1     -20.249  -1.414   5.986  0.00  0.00    +0.000 HD
ENDBRANCH  25  28
ENDBRANCH  22  25
ENDBRANCH  19  22
ENDBRANCH   1  19
TORSDOF 9
ENDMDL
MODEL 10
REMARK VINA RESULT:    -3.837      1.595      2.185
REMARK INTER + INTRA:          -6.457
REMARK INTER:                  -5.820
REMARK INTRA:                  -0.637
REMARK UNBOUND:                -0.713
REMARK  Name = 8175
REMARK  9 active torsions:
REMARK  status: ('A' for Active; 'I' for Inactive)
REMARK    1  A    between atoms: C_2  and  C_3
REMARK    2  A    between atoms: C_2  and  C_4
REMARK    3  A    between atoms: C_3  and  C_5
REMARK    4  A    between atoms: C_4  and  C_6
REMARK    5  A    between atoms: C_5  and  C_7
REMARK    6  A    between atoms: C_6  and  C_8
REMARK    7  A    between atoms: C_7  and  C_9
REMARK    8  A    between atoms: C_8  and  C_10
REMARK    9  A    between atoms: C_9  and  C_11
REMARK                            x       y       z     vdW  Elec       q    Type
REMARK                         _______ _______ _______ _____ _____    ______ ____
ROOT
ATOM      1  C   UNL     1      -1.327  10.105 -10.276  0.00  0.00    +0.000 C 
ATOM      2  H   UNL     1      -1.384  11.196 -10.362  0.00  0.00    +0.000 HD
ATOM      3  H   UNL     1      -0.701   9.880  -9.404  0.00  0.00    +0.000 HD
ENDROOT
BRANCH   1   4
ATOM      4  C   UNL     1      -0.681   9.522 -11.537  0.00  0.00    +0.000 C 
ATOM      5  H   UNL     1      -1.115   8.538 -11.755  0.00  0.00    +0.000 HD
ATOM      6  H   UNL     1       0.392   9.371 -11.365  0.00  0.00    +0.000 HD
BRANCH   4   7
ATOM      7  C   UNL     1      -0.880  10.448 -12.739  0.00  0.00    +0.000 C 
ATOM      8  H   UNL     1      -1.645  11.196 -12.499  0.00  0.00    +0.000 HD
ATOM      9  H   UNL     1       0.052  10.996 -12.929  0.00  0.00    +0.000 HD
BRANCH   7  10
ATOM     10  C   UNL     1      -1.289   9.707 -14.015  0.00  0.00    +0.000 C 
ATOM     11  H   UNL     1      -1.647  10.434 -14.755  0.00  0.00    +0.000 HD
ATOM     12  H   UNL     1      -0.403   9.232 -14.454  0.00  0.00    +0.000 HD
BRANCH  10  13
ATOM     13  C   UNL     1      -2.369   8.654 -13.783  0.00  0.00    +0.000 C 
ATOM     14  H   UNL     1      -2.588   8.558 -12.715  0.00  0.00    +0.000 HD
ATOM     15  H   UNL     1      -3.294   8.938 -14.297  0.00  0.00    +0.000 HD
BRANCH  13  17
ATOM     16  O   UNL     1      -2.146   6.887 -15.436  0.00  0.00    +0.000 OA
ATOM     17  C   UNL     1      -1.967   7.289 -14.292  0.00  0.00    +0.000 C 
ATOM     18  H   UNL     1      -1.471   6.644 -13.545  0.00  0.00    +0.000 HD
ENDBRANCH  13  17
ENDBRANCH  10  13
ENDBRANCH   7  10
ENDBRANCH   4   7
ENDBRANCH   1   4
BRANCH   1  19
ATOM     19  C   UNL     1      -2.729   9.532 -10.057  0.00  0.00    +0.000 C 
ATOM     20  H   UNL     1      -3.023   8.941 -10.933  0.00  0.00    +0.000 HD
ATOM     21  H   UNL     1      -3.445  10.360  -9.979  0.00  0.00    +0.000 HD
BRANCH  19  22
ATOM     22  C   UNL     1      -2.838   8.655  -8.806  0.00  0.00    +0.000 C 
ATOM     23  H   UNL     1      -1.857   8.596  -8.320  0.00  0.00    +0.000 HD
ATOM     24  H   UNL     1      -3.516   9.138  -8.092  0.00  0.00    +0.000 HD
BRANCH  22  25
ATOM     25  C   UNL     1      -3.345   7.241  -9.099  0.00  0.00    +0.000 C 
ATOM     26  H   UNL     1      -4.441   7.232  -9.096  0.00  0.00    +0.000 HD
ATOM     27  H   UNL     1      -3.012   6.557  -8.309  0.00  0.00    +0.000 HD
BRANCH  25  28
ATOM     28  C   UNL     1      -2.836   6.737 -10.441  0.00  0.00    +0.000 C 
ATOM     29  H   UNL     1      -1.768   6.957 -10.547  0.00  0.00    +0.000 HD
ATOM     30  H   UNL     1      -2.971   5.655 -10.530  0.00  0.00    +0.000 HD
ATOM     31  H   UNL     1      -3.366   7.220 -11.268  0.00  0.00    +0.000 HD
ENDBRANCH  25  28
ENDBRANCH  22  25
ENDBRANCH  19  22
ENDBRANCH   1  19
TORSDOF 9
ENDMDL
