MODEL 1
REMARK VINA RESULT:    -5.338      0.000      0.000
REMARK INTER + INTRA:          -6.918
REMARK INTER:                  -6.688
REMARK INTRA:                  -0.230
REMARK UNBOUND:                -0.175
REMARK  Name = 4284
REMARK  6 active torsions:
REMARK  status: ('A' for Active; 'I' for Inactive)
REMARK    1  A    between atoms: N_2  and  C_3
REMARK    2  A    between atoms: N_2  and  C_4
REMARK    3  A    between atoms: C_3  and  C_7
REMARK    4  A    between atoms: C_4  and  C_8
REMARK    5  A    between atoms: C_5  and  C_6
REMARK    6  A    between atoms: C_10  and  C_14
REMARK                            x       y       z     vdW  Elec       q    Type
REMARK                         _______ _______ _______ _____ _____    ______ ____
ROOT
ATOM      1  O   UNL     1      -1.773   6.486 -12.938  0.00  0.00    +0.000 OA
ATOM      2  N   UNL     1      -1.732   8.722 -12.256  0.00  0.00    +0.000 N 
ATOM      3  C   UNL     1      -2.182   7.390 -12.198  0.00  0.00    +0.000 C 
ENDROOT
BRANCH   3   4
ATOM      4  C   UNL     1      -3.180   7.029 -11.204  0.00  0.00    +0.000 A 
ATOM      5  C   UNL     1      -4.503   6.814 -11.589  0.00  0.00    +0.000 A 
ATOM      6  C   UNL     1      -5.459   6.464 -10.635  0.00  0.00    +0.000 A 
ATOM      7  C   UNL     1      -2.812   6.894  -9.865  0.00  0.00    +0.000 A 
ATOM      8  C   UNL     1      -5.092   6.330  -9.296  0.00  0.00    +0.000 A 
ATOM      9  C   UNL     1      -3.769   6.544  -8.911  0.00  0.00    +0.000 A 
ATOM     10  H   UNL     1      -4.789   6.909 -12.634  0.00  0.00    +0.000 HD
ATOM     11  H   UNL     1      -1.784   7.058  -9.554  0.00  0.00    +0.000 HD
ATOM     12  H   UNL     1      -5.827   6.060  -8.542  0.00  0.00    +0.000 HD
ATOM     13  H   UNL     1      -3.482   6.440  -7.869  0.00  0.00    +0.000 HD
BRANCH   6  14
ATOM     14  C   UNL     1      -6.874   6.235 -11.046  0.00  0.00    +0.000 C 
ATOM     15  H   UNL     1      -7.030   5.196 -11.354  0.00  0.00    +0.000 HD
ATOM     16  H   UNL     1      -7.566   6.432 -10.220  0.00  0.00    +0.000 HD
ATOM     17  H   UNL     1      -7.133   6.892 -11.883  0.00  0.00    +0.000 HD
ENDBRANCH   6  14
ENDBRANCH   3   4
BRANCH   2  18
ATOM     18  C   UNL     1      -0.723   9.158 -13.213  0.00  0.00    +0.000 C 
ATOM     19  H   UNL     1       0.031   9.747 -12.677  0.00  0.00    +0.000 HD
ATOM     20  H   UNL     1      -0.216   8.287 -13.637  0.00  0.00    +0.000 HD
BRANCH  18  21
ATOM     21  C   UNL     1      -1.328  10.019 -14.303  0.00  0.00    +0.000 C 
ATOM     22  H   UNL     1      -0.557  10.409 -14.974  0.00  0.00    +0.000 HD
ATOM     23  H   UNL     1      -2.038   9.446 -14.909  0.00  0.00    +0.000 HD
ATOM     24  H   UNL     1      -1.861  10.868 -13.866  0.00  0.00    +0.000 HD
ENDBRANCH  18  21
ENDBRANCH   2  18
BRANCH   2  25
ATOM     25  C   UNL     1      -2.243   9.757 -11.361  0.00  0.00    +0.000 C 
ATOM     26  H   UNL     1      -2.554  10.639 -11.928  0.00  0.00    +0.000 HD
ATOM     27  H   UNL     1      -3.143   9.382 -10.861  0.00  0.00    +0.000 HD
BRANCH  25  28
ATOM     28  C   UNL     1      -1.207  10.162 -10.332  0.00  0.00    +0.000 C 
ATOM     29  H   UNL     1      -1.666  10.727  -9.515  0.00  0.00    +0.000 HD
ATOM     30  H   UNL     1      -0.699   9.305  -9.889  0.00  0.00    +0.000 HD
ATOM     31  H   UNL     1      -0.448  10.800 -10.795  0.00  0.00    +0.000 HD
ENDBRANCH  25  28
ENDBRANCH   2  25
TORSDOF 6
ENDMDL
MODEL 2
REMARK VINA RESULT:    -5.277     15.222     16.631
REMARK INTER + INTRA:          -6.841
REMARK INTER:                  -6.885
REMARK INTRA:                   0.044
REMARK UNBOUND:                -0.175
REMARK  Name = 4284
REMARK  6 active torsions:
REMARK  status: ('A' for Active; 'I' for Inactive)
REMARK    1  A    between atoms: N_2  and  C_3
REMARK    2  A    between atoms: N_2  and  C_4
REMARK    3  A    between atoms: C_3  and  C_7
REMARK    4  A    between atoms: C_4  and  C_8
REMARK    5  A    between atoms: C_5  and  C_6
REMARK    6  A    between atoms: C_10  and  C_14
REMARK                            x       y       z     vdW  Elec       q    Type
REMARK                         _______ _______ _______ _____ _____    ______ ____
ROOT
ATOM      1  O   UNL     1       4.127   8.679   1.313  0.00  0.00    +0.000 OA
ATOM      2  N   UNL     1       5.888   8.504   2.840  0.00  0.00    +0.000 N 
ATOM      3  C   UNL     1       5.317   8.855   1.603  0.00  0.00    +0.000 C 
ENDROOT
BRANCH   3   4
ATOM      4  C   UNL     1       6.157   9.478   0.593  0.00  0.00    +0.000 A 
ATOM      5  C   UNL     1       7.222   8.770   0.036  0.00  0.00    +0.000 A 
ATOM      6  C   UNL     1       8.025   9.369  -0.936  0.00  0.00    +0.000 A 
ATOM      7  C   UNL     1       5.895  10.785   0.179  0.00  0.00    +0.000 A 
ATOM      8  C   UNL     1       7.764  10.675  -1.350  0.00  0.00    +0.000 A 
ATOM      9  C   UNL     1       6.700  11.383  -0.792  0.00  0.00    +0.000 A 
ATOM     10  H   UNL     1       7.420   7.748   0.350  0.00  0.00    +0.000 HD
ATOM     11  H   UNL     1       5.069  11.346   0.606  0.00  0.00    +0.000 HD
ATOM     12  H   UNL     1       8.384  11.153  -2.103  0.00  0.00    +0.000 HD
ATOM     13  H   UNL     1       6.495  12.400  -1.114  0.00  0.00    +0.000 HD
BRANCH   6  14
ATOM     14  C   UNL     1       9.163   8.611  -1.532  0.00  0.00    +0.000 C 
ATOM     15  H   UNL     1       8.950   8.334  -2.569  0.00  0.00    +0.000 HD
ATOM     16  H   UNL     1      10.080   9.212  -1.542  0.00  0.00    +0.000 HD
ATOM     17  H   UNL     1       9.351   7.700  -0.954  0.00  0.00    +0.000 HD
ENDBRANCH   6  14
ENDBRANCH   3   4
BRANCH   2  18
ATOM     18  C   UNL     1       5.109   7.891   3.907  0.00  0.00    +0.000 C 
ATOM     19  H   UNL     1       5.622   8.072   4.859  0.00  0.00    +0.000 HD
ATOM     20  H   UNL     1       4.127   8.370   3.969  0.00  0.00    +0.000 HD
BRANCH  18  21
ATOM     21  C   UNL     1       4.972   6.396   3.706  0.00  0.00    +0.000 C 
ATOM     22  H   UNL     1       5.914   5.879   3.910  0.00  0.00    +0.000 HD
ATOM     23  H   UNL     1       4.211   5.976   4.373  0.00  0.00    +0.000 HD
ATOM     24  H   UNL     1       4.679   6.176   2.675  0.00  0.00    +0.000 HD
ENDBRANCH  18  21
ENDBRANCH   2  18
BRANCH   2  25
ATOM     25  C   UNL     1       7.300   8.732   3.139  0.00  0.00    +0.000 C 
ATOM     26  H   UNL     1       7.915   7.920   2.740  0.00  0.00    +0.000 HD
ATOM     27  H   UNL     1       7.629   9.643   2.629  0.00  0.00    +0.000 HD
BRANCH  25  28
ATOM     28  C   UNL     1       7.538   8.856   4.630  0.00  0.00    +0.000 C 
ATOM     29  H   UNL     1       8.071   7.981   5.016  0.00  0.00    +0.000 HD
ATOM     30  H   UNL     1       8.127   9.737   4.890  0.00  0.00    +0.000 HD
ATOM     31  H   UNL     1       6.581   8.924   5.159  0.00  0.00    +0.000 HD
ENDBRANCH  25  28
ENDBRANCH   2  25
TORSDOF 6
ENDMDL
MODEL 3
REMARK VINA RESULT:    -5.102     18.888     20.876
REMARK INTER + INTRA:          -6.619
REMARK INTER:                  -6.322
REMARK INTRA:                  -0.297
REMARK UNBOUND:                -0.175
REMARK  Name = 4284
REMARK  6 active torsions:
REMARK  status: ('A' for Active; 'I' for Inactive)
REMARK    1  A    between atoms: N_2  and  C_3
REMARK    2  A    between atoms: N_2  and  C_4
REMARK    3  A    between atoms: C_3  and  C_7
REMARK    4  A    between atoms: C_4  and  C_8
REMARK    5  A    between atoms: C_5  and  C_6
REMARK    6  A    between atoms: C_10  and  C_14
REMARK                            x       y       z     vdW  Elec       q    Type
REMARK                         _______ _______ _______ _____ _____    ______ ____
ROOT
ATOM      1  O   UNL     1     -10.182  12.489   8.666  0.00  0.00    +0.000 OA
ATOM      2  N   UNL     1      -8.632  10.993   9.572  0.00  0.00    +0.000 N 
ATOM      3  C   UNL     1      -9.161  11.800   8.548  0.00  0.00    +0.000 C 
ENDROOT
BRANCH   3   4
ATOM      4  C   UNL     1      -8.474  11.852   7.268  0.00  0.00    +0.000 A 
ATOM      5  C   UNL     1      -7.608  12.908   6.982  0.00  0.00    +0.000 A 
ATOM      6  C   UNL     1      -6.947  12.955   5.754  0.00  0.00    +0.000 A 
ATOM      7  C   UNL     1      -8.679  10.844   6.326  0.00  0.00    +0.000 A 
ATOM      8  C   UNL     1      -7.153  11.947   4.812  0.00  0.00    +0.000 A 
ATOM      9  C   UNL     1      -8.018  10.892   5.097  0.00  0.00    +0.000 A 
ATOM     10  H   UNL     1      -7.440  13.689   7.720  0.00  0.00    +0.000 HD
ATOM     11  H   UNL     1      -9.351  10.017   6.538  0.00  0.00    +0.000 HD
ATOM     12  H   UNL     1      -6.646  11.973   3.851  0.00  0.00    +0.000 HD
ATOM     13  H   UNL     1      -8.179  10.106   4.365  0.00  0.00    +0.000 HD
BRANCH   6  14
ATOM     14  C   UNL     1      -6.022  14.084   5.449  0.00  0.00    +0.000 C 
ATOM     15  H   UNL     1      -5.033  13.910   5.885  0.00  0.00    +0.000 HD
ATOM     16  H   UNL     1      -5.879  14.201   4.369  0.00  0.00    +0.000 HD
ATOM     17  H   UNL     1      -6.425  15.019   5.851  0.00  0.00    +0.000 HD
ENDBRANCH   6  14
ENDBRANCH   3   4
BRANCH   2  18
ATOM     18  C   UNL     1      -9.253  10.900  10.886  0.00  0.00    +0.000 C 
ATOM     19  H   UNL     1     -10.265  11.316  10.821  0.00  0.00    +0.000 HD
ATOM     20  H   UNL     1      -9.349   9.849  11.175  0.00  0.00    +0.000 HD
BRANCH  18  21
ATOM     21  C   UNL     1      -8.473  11.678  11.925  0.00  0.00    +0.000 C 
ATOM     22  H   UNL     1      -8.800  11.427  12.938  0.00  0.00    +0.000 HD
ATOM     23  H   UNL     1      -7.401  11.461  11.858  0.00  0.00    +0.000 HD
ATOM     24  H   UNL     1      -8.612  12.754  11.779  0.00  0.00    +0.000 HD
ENDBRANCH  18  21
ENDBRANCH   2  18
BRANCH   2  25
ATOM     25  C   UNL     1      -7.422  10.194   9.387  0.00  0.00    +0.000 C 
ATOM     26  H   UNL     1      -6.914  10.472   8.459  0.00  0.00    +0.000 HD
ATOM     27  H   UNL     1      -6.721  10.418  10.198  0.00  0.00    +0.000 HD
BRANCH  25  28
ATOM     28  C   UNL     1      -7.734   8.712   9.364  0.00  0.00    +0.000 C 
ATOM     29  H   UNL     1      -6.859   8.122   9.654  0.00  0.00    +0.000 HD
ATOM     30  H   UNL     1      -8.546   8.443  10.041  0.00  0.00    +0.000 HD
ATOM     31  H   UNL     1      -8.024   8.405   8.353  0.00  0.00    +0.000 HD
ENDBRANCH  25  28
ENDBRANCH   2  25
TORSDOF 6
ENDMDL
MODEL 4
REMARK VINA RESULT:    -4.935     18.503     20.541
REMARK INTER + INTRA:          -6.408
REMARK INTER:                  -6.153
REMARK INTRA:                  -0.255
REMARK UNBOUND:                -0.175
REMARK  Name = 4284
REMARK  6 active torsions:
REMARK  status: ('A' for Active; 'I' for Inactive)
REMARK    1  A    between atoms: N_2  and  C_3
REMARK    2  A    between atoms: N_2  and  C_4
REMARK    3  A    between atoms: C_3  and  C_7
REMARK    4  A    between atoms: C_4  and  C_8
REMARK    5  A    between atoms: C_5  and  C_6
REMARK    6  A    between atoms: C_10  and  C_14
REMARK                            x       y       z     vdW  Elec       q    Type
REMARK                         _______ _______ _______ _____ _____    ______ ____
ROOT
ATOM      1  O   UNL     1      -7.800  10.350   9.099  0.00  0.00    +0.000 OA
ATOM      2  N   UNL     1     -10.023  10.776   8.517  0.00  0.00    +0.000 N 
ATOM      3  C   UNL     1      -8.632  10.805   8.305  0.00  0.00    +0.000 C 
ENDROOT
BRANCH   3   4
ATOM      4  C   UNL     1      -8.121  11.391   7.077  0.00  0.00    +0.000 A 
ATOM      5  C   UNL     1      -7.559  12.668   7.092  0.00  0.00    +0.000 A 
ATOM      6  C   UNL     1      -7.066  13.227   5.912  0.00  0.00    +0.000 A 
ATOM      7  C   UNL     1      -8.190  10.673   5.882  0.00  0.00    +0.000 A 
ATOM      8  C   UNL     1      -7.135  12.510   4.718  0.00  0.00    +0.000 A 
ATOM      9  C   UNL     1      -7.697  11.233   4.703  0.00  0.00    +0.000 A 
ATOM     10  H   UNL     1      -7.496  13.223   8.024  0.00  0.00    +0.000 HD
ATOM     11  H   UNL     1      -8.625   9.678   5.858  0.00  0.00    +0.000 HD
ATOM     12  H   UNL     1      -6.757  12.935   3.792  0.00  0.00    +0.000 HD
ATOM     13  H   UNL     1      -7.751  10.674   3.773  0.00  0.00    +0.000 HD
BRANCH   6  14
ATOM     14  C   UNL     1      -6.466  14.592   5.929  0.00  0.00    +0.000 C 
ATOM     15  H   UNL     1      -6.178  14.882   6.945  0.00  0.00    +0.000 HD
ATOM     16  H   UNL     1      -5.559  14.635   5.314  0.00  0.00    +0.000 HD
ATOM     17  H   UNL     1      -7.184  15.323   5.543  0.00  0.00    +0.000 HD
ENDBRANCH   6  14
ENDBRANCH   3   4
BRANCH   2  18
ATOM     18  C   UNL     1     -10.613  10.193   9.715  0.00  0.00    +0.000 C 
ATOM     19  H   UNL     1     -11.346   9.438   9.408  0.00  0.00    +0.000 HD
ATOM     20  H   UNL     1      -9.839   9.680  10.294  0.00  0.00    +0.000 HD
BRANCH  18  21
ATOM     21  C   UNL     1     -11.315  11.240  10.554  0.00  0.00    +0.000 C 
ATOM     22  H   UNL     1     -12.127  11.717   9.997  0.00  0.00    +0.000 HD
ATOM     23  H   UNL     1     -11.748  10.797  11.458  0.00  0.00    +0.000 HD
ATOM     24  H   UNL     1     -10.610  12.018  10.861  0.00  0.00    +0.000 HD
ENDBRANCH  18  21
ENDBRANCH   2  18
BRANCH   2  25
ATOM     25  C   UNL     1     -10.970  11.326   7.550  0.00  0.00    +0.000 C 
ATOM     26  H   UNL     1     -11.641  12.043   8.032  0.00  0.00    +0.000 HD
ATOM     27  H   UNL     1     -10.417  11.889   6.791  0.00  0.00    +0.000 HD
BRANCH  25  28
ATOM     28  C   UNL     1     -11.790  10.234   6.894  0.00  0.00    +0.000 C 
ATOM     29  H   UNL     1     -11.824   9.339   7.522  0.00  0.00    +0.000 HD
ATOM     30  H   UNL     1     -12.820  10.538   6.705  0.00  0.00    +0.000 HD
ATOM     31  H   UNL     1     -11.342   9.952   5.935  0.00  0.00    +0.000 HD
ENDBRANCH  25  28
ENDBRANCH   2  25
TORSDOF 6
ENDMDL
MODEL 5
REMARK VINA RESULT:    -4.880      8.567      9.411
REMARK INTER + INTRA:          -6.338
REMARK INTER:                  -6.298
REMARK INTRA:                  -0.040
REMARK UNBOUND:                -0.175
REMARK  Name = 4284
REMARK  6 active torsions:
REMARK  status: ('A' for Active; 'I' for Inactive)
REMARK    1  A    between atoms: N_2  and  C_3
REMARK    2  A    between atoms: N_2  and  C_4
REMARK    3  A    between atoms: C_3  and  C_7
REMARK    4  A    between atoms: C_4  and  C_8
REMARK    5  A    between atoms: C_5  and  C_6
REMARK    6  A    between atoms: C_10  and  C_14
REMARK                            x       y       z     vdW  Elec       q    Type
REMARK                         _______ _______ _______ _____ _____    ______ ____
ROOT
ATOM      1  O   UNL     1       1.339   1.108 -12.208  0.00  0.00    +0.000 OA
ATOM      2  N   UNL     1       1.588  -0.988 -13.213  0.00  0.00    +0.000 N 
ATOM      3  C   UNL     1       0.845   0.051 -12.623  0.00  0.00    +0.000 C 
ENDROOT
BRANCH   3   4
ATOM      4  C   UNL     1      -0.595  -0.099 -12.495  0.00  0.00    +0.000 A 
ATOM      5  C   UNL     1      -1.167  -0.308 -11.241  0.00  0.00    +0.000 A 
ATOM      6  C   UNL     1      -2.550  -0.448 -11.120  0.00  0.00    +0.000 A 
ATOM      7  C   UNL     1      -1.405  -0.031 -13.629  0.00  0.00    +0.000 A 
ATOM      8  C   UNL     1      -3.361  -0.381 -12.253  0.00  0.00    +0.000 A 
ATOM      9  C   UNL     1      -2.788  -0.172 -13.508  0.00  0.00    +0.000 A 
ATOM     10  H   UNL     1      -0.537  -0.351 -10.355  0.00  0.00    +0.000 HD
ATOM     11  H   UNL     1      -0.970   0.132 -14.612  0.00  0.00    +0.000 HD
ATOM     12  H   UNL     1      -4.438  -0.491 -12.173  0.00  0.00    +0.000 HD
ATOM     13  H   UNL     1      -3.418  -0.119 -14.391  0.00  0.00    +0.000 HD
BRANCH   6  14
ATOM     14  C   UNL     1      -3.162  -0.671  -9.778  0.00  0.00    +0.000 C 
ATOM     15  H   UNL     1      -4.214  -0.960  -9.869  0.00  0.00    +0.000 HD
ATOM     16  H   UNL     1      -2.654  -1.478  -9.238  0.00  0.00    +0.000 HD
ATOM     17  H   UNL     1      -3.098   0.243  -9.179  0.00  0.00    +0.000 HD
ENDBRANCH   6  14
ENDBRANCH   3   4
BRANCH   2  18
ATOM     18  C   UNL     1       3.032  -0.906 -13.390  0.00  0.00    +0.000 C 
ATOM     19  H   UNL     1       3.468  -0.472 -12.484  0.00  0.00    +0.000 HD
ATOM     20  H   UNL     1       3.447  -1.912 -13.503  0.00  0.00    +0.000 HD
BRANCH  18  21
ATOM     21  C   UNL     1       3.397  -0.034 -14.573  0.00  0.00    +0.000 C 
ATOM     22  H   UNL     1       2.543   0.105 -15.243  0.00  0.00    +0.000 HD
ATOM     23  H   UNL     1       3.726   0.959 -14.245  0.00  0.00    +0.000 HD
ATOM     24  H   UNL     1       4.210  -0.489 -15.146  0.00  0.00    +0.000 HD
ENDBRANCH  18  21
ENDBRANCH   2  18
BRANCH   2  25
ATOM     25  C   UNL     1       0.962  -2.220 -13.689  0.00  0.00    +0.000 C 
ATOM     26  H   UNL     1       0.166  -2.536 -13.008  0.00  0.00    +0.000 HD
ATOM     27  H   UNL     1       0.480  -2.024 -14.653  0.00  0.00    +0.000 HD
BRANCH  25  28
ATOM     28  C   UNL     1       1.975  -3.338 -13.832  0.00  0.00    +0.000 C 
ATOM     29  H   UNL     1       2.610  -3.406 -12.943  0.00  0.00    +0.000 HD
ATOM     30  H   UNL     1       1.507  -4.313 -13.974  0.00  0.00    +0.000 HD
ATOM     31  H   UNL     1       2.625  -3.148 -14.692  0.00  0.00    +0.000 HD
ENDBRANCH  25  28
ENDBRANCH   2  25
TORSDOF 6
ENDMDL
MODEL 6
REMARK VINA RESULT:    -4.878      2.246      3.348
REMARK INTER + INTRA:          -6.336
REMARK INTER:                  -6.035
REMARK INTRA:                  -0.301
REMARK UNBOUND:                -0.175
REMARK  Name = 4284
REMARK  6 active torsions:
REMARK  status: ('A' for Active; 'I' for Inactive)
REMARK    1  A    between atoms: N_2  and  C_3
REMARK    2  A    between atoms: N_2  and  C_4
REMARK    3  A    between atoms: C_3  and  C_7
REMARK    4  A    between atoms: C_4  and  C_8
REMARK    5  A    between atoms: C_5  and  C_6
REMARK    6  A    between atoms: C_10  and  C_14
REMARK                            x       y       z     vdW  Elec       q    Type
REMARK                         _______ _______ _______ _____ _____    ______ ____
ROOT
ATOM      1  O   UNL     1      -4.035  10.442 -13.588  0.00  0.00    +0.000 OA
ATOM      2  N   UNL     1      -1.705  10.472 -13.783  0.00  0.00    +0.000 N 
ATOM      3  C   UNL     1      -2.921  10.052 -13.213  0.00  0.00    +0.000 C 
ENDROOT
BRANCH   3   4
ATOM      4  C   UNL     1      -2.892   9.091 -12.123  0.00  0.00    +0.000 A 
ATOM      5  C   UNL     1      -2.901   9.534 -10.800  0.00  0.00    +0.000 A 
ATOM      6  C   UNL     1      -2.875   8.610  -9.755  0.00  0.00    +0.000 A 
ATOM      7  C   UNL     1      -2.858   7.724 -12.400  0.00  0.00    +0.000 A 
ATOM      8  C   UNL     1      -2.840   7.243 -10.032  0.00  0.00    +0.000 A 
ATOM      9  C   UNL     1      -2.832   6.800 -11.355  0.00  0.00    +0.000 A 
ATOM     10  H   UNL     1      -2.938  10.599 -10.583  0.00  0.00    +0.000 HD
ATOM     11  H   UNL     1      -2.850   7.368 -13.427  0.00  0.00    +0.000 HD
ATOM     12  H   UNL     1      -2.818   6.514  -9.228  0.00  0.00    +0.000 HD
ATOM     13  H   UNL     1      -2.805   5.737 -11.572  0.00  0.00    +0.000 HD
BRANCH   6  14
ATOM     14  C   UNL     1      -2.885   9.084  -8.341  0.00  0.00    +0.000 C 
ATOM     15  H   UNL     1      -2.857   8.240  -7.644  0.00  0.00    +0.000 HD
ATOM     16  H   UNL     1      -2.011   9.708  -8.124  0.00  0.00    +0.000 HD
ATOM     17  H   UNL     1      -3.789   9.671  -8.148  0.00  0.00    +0.000 HD
ENDBRANCH   6  14
ENDBRANCH   3   4
BRANCH   2  18
ATOM     18  C   UNL     1      -1.653  11.420 -14.888  0.00  0.00    +0.000 C 
ATOM     19  H   UNL     1      -1.276  10.898 -15.775  0.00  0.00    +0.000 HD
ATOM     20  H   UNL     1      -2.663  11.771 -15.120  0.00  0.00    +0.000 HD
BRANCH  18  21
ATOM     21  C   UNL     1      -0.732  12.582 -14.579  0.00  0.00    +0.000 C 
ATOM     22  H   UNL     1      -0.419  13.095 -15.494  0.00  0.00    +0.000 HD
ATOM     23  H   UNL     1      -1.228  13.319 -13.938  0.00  0.00    +0.000 HD
ATOM     24  H   UNL     1       0.166  12.229 -14.062  0.00  0.00    +0.000 HD
ENDBRANCH  18  21
ENDBRANCH   2  18
BRANCH   2  25
ATOM     25  C   UNL     1      -0.413   9.984 -13.308  0.00  0.00    +0.000 C 
ATOM     26  H   UNL     1       0.273  10.817 -13.132  0.00  0.00    +0.000 HD
ATOM     27  H   UNL     1      -0.553   9.493 -12.339  0.00  0.00    +0.000 HD
BRANCH  25  28
ATOM     28  C   UNL     1       0.212   9.018 -14.294  0.00  0.00    +0.000 C 
ATOM     29  H   UNL     1       1.200   9.367 -14.611  0.00  0.00    +0.000 HD
ATOM     30  H   UNL     1       0.338   8.017 -13.879  0.00  0.00    +0.000 HD
ATOM     31  H   UNL     1      -0.415   8.935 -15.187  0.00  0.00    +0.000 HD
ENDBRANCH  25  28
ENDBRANCH   2  25
TORSDOF 6
ENDMDL
MODEL 7
REMARK VINA RESULT:    -4.773     11.611     13.175
REMARK INTER + INTRA:          -6.204
REMARK INTER:                  -5.902
REMARK INTRA:                  -0.302
REMARK UNBOUND:                -0.175
REMARK  Name = 4284
REMARK  6 active torsions:
REMARK  status: ('A' for Active; 'I' for Inactive)
REMARK    1  A    between atoms: N_2  and  C_3
REMARK    2  A    between atoms: N_2  and  C_4
REMARK    3  A    between atoms: C_3  and  C_7
REMARK    4  A    between atoms: C_4  and  C_8
REMARK    5  A    between atoms: C_5  and  C_6
REMARK    6  A    between atoms: C_10  and  C_14
REMARK                            x       y       z     vdW  Elec       q    Type
REMARK                         _______ _______ _______ _____ _____    ______ ____
ROOT
ATOM      1  O   UNL     1       4.873  -1.338 -13.259  0.00  0.00    +0.000 OA
ATOM      2  N   UNL     1       3.063  -0.449 -14.442  0.00  0.00    +0.000 N 
ATOM      3  C   UNL     1       4.264  -1.173 -14.325  0.00  0.00    +0.000 C 
ENDROOT
BRANCH   3   4
ATOM      4  C   UNL     1       4.836  -1.785 -15.513  0.00  0.00    +0.000 A 
ATOM      5  C   UNL     1       5.632  -1.029 -16.374  0.00  0.00    +0.000 A 
ATOM      6  C   UNL     1       6.182  -1.619 -17.512  0.00  0.00    +0.000 A 
ATOM      7  C   UNL     1       4.590  -3.130 -15.790  0.00  0.00    +0.000 A 
ATOM      8  C   UNL     1       5.936  -2.963 -17.791  0.00  0.00    +0.000 A 
ATOM      9  C   UNL     1       5.140  -3.719 -16.929  0.00  0.00    +0.000 A 
ATOM     10  H   UNL     1       5.832   0.017 -16.153  0.00  0.00    +0.000 HD
ATOM     11  H   UNL     1       3.972  -3.728 -15.126  0.00  0.00    +0.000 HD
ATOM     12  H   UNL     1       6.357  -3.434 -18.675  0.00  0.00    +0.000 HD
ATOM     13  H   UNL     1       4.948  -4.766 -17.145  0.00  0.00    +0.000 HD
BRANCH   6  14
ATOM     14  C   UNL     1       7.033  -0.811 -18.433  0.00  0.00    +0.000 C 
ATOM     15  H   UNL     1       6.502  -0.585 -19.363  0.00  0.00    +0.000 HD
ATOM     16  H   UNL     1       7.310   0.148 -17.980  0.00  0.00    +0.000 HD
ATOM     17  H   UNL     1       7.950  -1.359 -18.675  0.00  0.00    +0.000 HD
ENDBRANCH   6  14
ENDBRANCH   3   4
BRANCH   2  18
ATOM     18  C   UNL     1       2.421   0.180 -13.296  0.00  0.00    +0.000 C 
ATOM     19  H   UNL     1       3.133   0.191 -12.463  0.00  0.00    +0.000 HD
ATOM     20  H   UNL     1       2.179   1.220 -13.534  0.00  0.00    +0.000 HD
BRANCH  18  21
ATOM     21  C   UNL     1       1.183  -0.581 -12.868  0.00  0.00    +0.000 C 
ATOM     22  H   UNL     1       1.067  -0.571 -11.780  0.00  0.00    +0.000 HD
ATOM     23  H   UNL     1       0.279  -0.140 -13.303  0.00  0.00    +0.000 HD
ATOM     24  H   UNL     1       1.244  -1.623 -13.195  0.00  0.00    +0.000 HD
ENDBRANCH  18  21
ENDBRANCH   2  18
BRANCH   2  25
ATOM     25  C   UNL     1       2.379  -0.280 -15.722  0.00  0.00    +0.000 C 
ATOM     26  H   UNL     1       2.837  -0.909 -16.491  0.00  0.00    +0.000 HD
ATOM     27  H   UNL     1       1.345  -0.625 -15.620  0.00  0.00    +0.000 HD
BRANCH  25  28
ATOM     28  C   UNL     1       2.402   1.166 -16.176  0.00  0.00    +0.000 C 
ATOM     29  H   UNL     1       1.386   1.560 -16.280  0.00  0.00    +0.000 HD
ATOM     30  H   UNL     1       2.934   1.816 -15.481  0.00  0.00    +0.000 HD
ATOM     31  H   UNL     1       2.892   1.245 -17.152  0.00  0.00    +0.000 HD
ENDBRANCH  25  28
ENDBRANCH   2  25
TORSDOF 6
ENDMDL
MODEL 8
REMARK VINA RESULT:    -4.685      2.144      5.817
REMARK INTER + INTRA:          -6.093
REMARK INTER:                  -5.917
REMARK INTRA:                  -0.176
REMARK UNBOUND:                -0.175
REMARK  Name = 4284
REMARK  6 active torsions:
REMARK  status: ('A' for Active; 'I' for Inactive)
REMARK    1  A    between atoms: N_2  and  C_3
REMARK    2  A    between atoms: N_2  and  C_4
REMARK    3  A    between atoms: C_3  and  C_7
REMARK    4  A    between atoms: C_4  and  C_8
REMARK    5  A    between atoms: C_5  and  C_6
REMARK    6  A    between atoms: C_10  and  C_14
REMARK                            x       y       z     vdW  Elec       q    Type
REMARK                         _______ _______ _______ _____ _____    ______ ____
ROOT
ATOM      1  O   UNL     1      -0.822  10.061 -10.200  0.00  0.00    +0.000 OA
ATOM      2  N   UNL     1      -2.489   8.726 -11.151  0.00  0.00    +0.000 N 
ATOM      3  C   UNL     1      -1.361   9.566 -11.199  0.00  0.00    +0.000 C 
ENDROOT
BRANCH   3   4
ATOM      4  C   UNL     1      -0.769   9.875 -12.489  0.00  0.00    +0.000 A 
ATOM      5  C   UNL     1      -0.878  11.161 -13.019  0.00  0.00    +0.000 A 
ATOM      6  C   UNL     1      -0.306  11.456 -14.257  0.00  0.00    +0.000 A 
ATOM      7  C   UNL     1      -0.087   8.884 -13.198  0.00  0.00    +0.000 A 
ATOM      8  C   UNL     1       0.375  10.465 -14.966  0.00  0.00    +0.000 A 
ATOM      9  C   UNL     1       0.484   9.180 -14.436  0.00  0.00    +0.000 A 
ATOM     10  H   UNL     1      -1.399  11.936 -12.463  0.00  0.00    +0.000 HD
ATOM     11  H   UNL     1       0.004   7.879 -12.794  0.00  0.00    +0.000 HD
ATOM     12  H   UNL     1       0.823  10.681 -15.932  0.00  0.00    +0.000 HD
ATOM     13  H   UNL     1       1.014   8.408 -14.986  0.00  0.00    +0.000 HD
BRANCH   6  14
ATOM     14  C   UNL     1      -0.422  12.830 -14.823  0.00  0.00    +0.000 C 
ATOM     15  H   UNL     1      -1.283  12.907 -15.495  0.00  0.00    +0.000 HD
ATOM     16  H   UNL     1      -0.565  13.576 -14.033  0.00  0.00    +0.000 HD
ATOM     17  H   UNL     1       0.485  13.085 -15.382  0.00  0.00    +0.000 HD
ENDBRANCH   6  14
ENDBRANCH   3   4
BRANCH   2  18
ATOM     18  C   UNL     1      -3.130   8.359  -9.895  0.00  0.00    +0.000 C 
ATOM     19  H   UNL     1      -2.561   8.804  -9.072  0.00  0.00    +0.000 HD
ATOM     20  H   UNL     1      -4.140   8.779  -9.860  0.00  0.00    +0.000 HD
BRANCH  18  21
ATOM     21  C   UNL     1      -3.161   6.856  -9.708  0.00  0.00    +0.000 C 
ATOM     22  H   UNL     1      -3.943   6.560  -9.002  0.00  0.00    +0.000 HD
ATOM     23  H   UNL     1      -3.358   6.344 -10.656  0.00  0.00    +0.000 HD
ATOM     24  H   UNL     1      -2.201   6.500  -9.322  0.00  0.00    +0.000 HD
ENDBRANCH  18  21
ENDBRANCH   2  18
BRANCH   2  25
ATOM     25  C   UNL     1      -3.093   8.164 -12.357  0.00  0.00    +0.000 C 
ATOM     26  H   UNL     1      -2.385   8.187 -13.190  0.00  0.00    +0.000 HD
ATOM     27  H   UNL     1      -3.324   7.109 -12.180  0.00  0.00    +0.000 HD
BRANCH  25  28
ATOM     28  C   UNL     1      -4.352   8.914 -12.747  0.00  0.00    +0.000 C 
ATOM     29  H   UNL     1      -5.050   8.970 -11.907  0.00  0.00    +0.000 HD
ATOM     30  H   UNL     1      -4.149   9.935 -13.070  0.00  0.00    +0.000 HD
ATOM     31  H   UNL     1      -4.858   8.396 -13.568  0.00  0.00    +0.000 HD
ENDBRANCH  25  28
ENDBRANCH   2  25
TORSDOF 6
ENDMDL
MODEL 9
REMARK VINA RESULT:    -4.604     27.813     29.648
REMARK INTER + INTRA:          -5.991
REMARK INTER:                  -5.746
REMARK INTRA:                  -0.245
REMARK UNBOUND:                -0.175
REMARK  Name = 4284
REMARK  6 active torsions:
REMARK  status: ('A' for Active; 'I' for Inactive)
REMARK    1  A    between atoms: N_2  and  C_3
REMARK    2  A    between atoms: N_2  and  C_4
REMARK    3  A    between atoms: C_3  and  C_7
REMARK    4  A    between atoms: C_4  and  C_8
REMARK    5  A    between atoms: C_5  and  C_6
REMARK    6  A    between atoms: C_10  and  C_14
REMARK                            x       y       z     vdW  Elec       q    Type
REMARK                         _______ _______ _______ _____ _____    ______ ____
ROOT
ATOM      1  O   UNL     1      -7.261  10.506  16.755  0.00  0.00    +0.000 OA
ATOM      2  N   UNL     1      -9.271  10.698  15.577  0.00  0.00    +0.000 N 
ATOM      3  C   UNL     1      -8.489  10.360  16.697  0.00  0.00    +0.000 C 
ENDROOT
BRANCH   3   4
ATOM      4  C   UNL     1      -9.145   9.818  17.875  0.00  0.00    +0.000 A 
ATOM      5  C   UNL     1      -9.677  10.678  18.837  0.00  0.00    +0.000 A 
ATOM      6  C   UNL     1     -10.309  10.155  19.966  0.00  0.00    +0.000 A 
ATOM      7  C   UNL     1      -9.244   8.436  18.043  0.00  0.00    +0.000 A 
ATOM      8  C   UNL     1     -10.409   8.774  20.134  0.00  0.00    +0.000 A 
ATOM      9  C   UNL     1      -9.876   7.915  19.173  0.00  0.00    +0.000 A 
ATOM     10  H   UNL     1      -9.609  11.754  18.702  0.00  0.00    +0.000 HD
ATOM     11  H   UNL     1      -8.833   7.758  17.301  0.00  0.00    +0.000 HD
ATOM     12  H   UNL     1     -10.896   8.355  21.010  0.00  0.00    +0.000 HD
ATOM     13  H   UNL     1      -9.953   6.839  19.303  0.00  0.00    +0.000 HD
BRANCH   6  14
ATOM     14  C   UNL     1     -10.879  11.074  20.993  0.00  0.00    +0.000 C 
ATOM     15  H   UNL     1     -11.971  11.012  21.013  0.00  0.00    +0.000 HD
ATOM     16  H   UNL     1     -10.524  10.817  21.997  0.00  0.00    +0.000 HD
ATOM     17  H   UNL     1     -10.589  12.107  20.775  0.00  0.00    +0.000 HD
ENDBRANCH   6  14
ENDBRANCH   3   4
BRANCH   2  18
ATOM     18  C   UNL     1      -8.690  11.261  14.366  0.00  0.00    +0.000 C 
ATOM     19  H   UNL     1      -7.684  10.843  14.238  0.00  0.00    +0.000 HD
ATOM     20  H   UNL     1      -9.282  10.957  13.497  0.00  0.00    +0.000 HD
BRANCH  18  21
ATOM     21  C   UNL     1      -8.584  12.769  14.450  0.00  0.00    +0.000 C 
ATOM     22  H   UNL     1      -9.074  13.152  15.350  0.00  0.00    +0.000 HD
ATOM     23  H   UNL     1      -7.537  13.090  14.479  0.00  0.00    +0.000 HD
ATOM     24  H   UNL     1      -9.058  13.234  13.580  0.00  0.00    +0.000 HD
ENDBRANCH  18  21
ENDBRANCH   2  18
BRANCH   2  25
ATOM     25  C   UNL     1     -10.720  10.508  15.554  0.00  0.00    +0.000 C 
ATOM     26  H   UNL     1     -11.020   9.742  16.274  0.00  0.00    +0.000 HD
ATOM     27  H   UNL     1     -11.205  11.436  15.874  0.00  0.00    +0.000 HD
BRANCH  25  28
ATOM     28  C   UNL     1     -11.205  10.117  14.173  0.00  0.00    +0.000 C 
ATOM     29  H   UNL     1     -10.654  10.657  13.397  0.00  0.00    +0.000 HD
ATOM     30  H   UNL     1     -11.089   9.051  13.973  0.00  0.00    +0.000 HD
ATOM     31  H   UNL     1     -12.266  10.365  14.063  0.00  0.00    +0.000 HD
ENDBRANCH  25  28
ENDBRANCH   2  25
TORSDOF 6
ENDMDL
MODEL 10
REMARK VINA RESULT:    -4.459     28.003     29.772
REMARK INTER + INTRA:          -5.807
REMARK INTER:                  -5.633
REMARK INTRA:                  -0.175
REMARK UNBOUND:                -0.175
REMARK  Name = 4284
REMARK  6 active torsions:
REMARK  status: ('A' for Active; 'I' for Inactive)
REMARK    1  A    between atoms: N_2  and  C_3
REMARK    2  A    between atoms: N_2  and  C_4
REMARK    3  A    between atoms: C_3  and  C_7
REMARK    4  A    between atoms: C_4  and  C_8
REMARK    5  A    between atoms: C_5  and  C_6
REMARK    6  A    between atoms: C_10  and  C_14
REMARK                            x       y       z     vdW  Elec       q    Type
REMARK                         _______ _______ _______ _____ _____    ______ ____
ROOT
ATOM      1  O   UNL     1     -10.763  10.166  15.484  0.00  0.00    +0.000 OA
ATOM      2  N   UNL     1      -8.708  11.117  16.064  0.00  0.00    +0.000 N 
ATOM      3  C   UNL     1      -9.869  10.364  16.317  0.00  0.00    +0.000 C 
ENDROOT
BRANCH   3   4
ATOM      4  C   UNL     1     -10.044   9.760  17.628  0.00  0.00    +0.000 A 
ATOM      5  C   UNL     1     -10.857  10.377  18.579  0.00  0.00    +0.000 A 
ATOM      6  C   UNL     1     -11.026   9.795  19.835  0.00  0.00    +0.000 A 
ATOM      7  C   UNL     1      -9.400   8.560  17.934  0.00  0.00    +0.000 A 
ATOM      8  C   UNL     1     -10.382   8.596  20.142  0.00  0.00    +0.000 A 
ATOM      9  C   UNL     1      -9.569   7.979  19.191  0.00  0.00    +0.000 A 
ATOM     10  H   UNL     1     -11.367  11.306  18.338  0.00  0.00    +0.000 HD
ATOM     11  H   UNL     1      -8.764   8.071  17.201  0.00  0.00    +0.000 HD
ATOM     12  H   UNL     1     -10.503   8.133  21.117  0.00  0.00    +0.000 HD
ATOM     13  H   UNL     1      -9.067   7.046  19.428  0.00  0.00    +0.000 HD
BRANCH   6  14
ATOM     14  C   UNL     1     -11.895  10.454  20.852  0.00  0.00    +0.000 C 
ATOM     15  H   UNL     1     -11.743  10.016  21.843  0.00  0.00    +0.000 HD
ATOM     16  H   UNL     1     -11.669  11.523  20.936  0.00  0.00    +0.000 HD
ATOM     17  H   UNL     1     -12.949  10.342  20.574  0.00  0.00    +0.000 HD
ENDBRANCH   6  14
ENDBRANCH   3   4
BRANCH   2  18
ATOM     18  C   UNL     1      -8.453  11.739  14.772  0.00  0.00    +0.000 C 
ATOM     19  H   UNL     1      -7.372  11.883  14.664  0.00  0.00    +0.000 HD
ATOM     20  H   UNL     1      -8.775  11.069  13.970  0.00  0.00    +0.000 HD
BRANCH  18  21
ATOM     21  C   UNL     1      -9.137  13.086  14.661  0.00  0.00    +0.000 C 
ATOM     22  H   UNL     1      -8.413  13.905  14.707  0.00  0.00    +0.000 HD
ATOM     23  H   UNL     1      -9.680  13.176  13.713  0.00  0.00    +0.000 HD
ATOM     24  H   UNL     1      -9.853  13.218  15.477  0.00  0.00    +0.000 HD
ENDBRANCH  18  21
ENDBRANCH   2  18
BRANCH   2  25
ATOM     25  C   UNL     1      -7.677  11.323  17.080  0.00  0.00    +0.000 C 
ATOM     26  H   UNL     1      -7.953  12.144  17.748  0.00  0.00    +0.000 HD
ATOM     27  H   UNL     1      -7.611  10.428  17.706  0.00  0.00    +0.000 HD
BRANCH  25  28
ATOM     28  C   UNL     1      -6.331  11.619  16.450  0.00  0.00    +0.000 C 
ATOM     29  H   UNL     1      -5.663  10.756  16.531  0.00  0.00    +0.000 HD
ATOM     30  H   UNL     1      -6.408  11.872  15.392  0.00  0.00    +0.000 HD
ATOM     31  H   UNL     1      -5.853  12.460  16.963  0.00  0.00    +0.000 HD
ENDBRANCH  25  28
ENDBRANCH   2  25
TORSDOF 6
ENDMDL
