MODEL 1
REMARK VINA RESULT:    -3.387      0.000      0.000
REMARK INTER + INTRA:          -3.783
REMARK INTER:                  -3.783
REMARK INTRA:                   0.000
REMARK UNBOUND:                 0.000
REMARK  Name = 650
REMARK  3 active torsions:
REMARK  status: ('A' for Active; 'I' for Inactive)
REMARK    1  A    between atoms: C_3  and  C_4
REMARK    2  A    between atoms: C_3  and  C_5
REMARK    3  A    between atoms: C_4  and  C_6
REMARK                            x       y       z     vdW  Elec       q    Type
REMARK                         _______ _______ _______ _____ _____    ______ ____
ROOT
ATOM      1  O   UNL     1       4.799  12.592   0.549  0.00  0.00    +0.000 OA
ATOM      2  C   UNL     1       4.879  11.432   0.166  0.00  0.00    +0.000 C 
ENDROOT
BRANCH   2   3
ATOM      3  C   UNL     1       5.894  10.956  -0.829  0.00  0.00    +0.000 C 
ATOM      4  H   UNL     1       6.811  10.656  -0.316  0.00  0.00    +0.000 HD
ATOM      5  H   UNL     1       6.138  11.773  -1.515  0.00  0.00    +0.000 HD
ATOM      6  H   UNL     1       5.489  10.128  -1.414  0.00  0.00    +0.000 HD
ENDBRANCH   2   3
BRANCH   2   8
ATOM      7  O   UNL     1       3.141  10.811   1.619  0.00  0.00    +0.000 OA
ATOM      8  C   UNL     1       3.895  10.431   0.733  0.00  0.00    +0.000 C 
BRANCH   8   9
ATOM      9  C   UNL     1       3.893   9.036   0.184  0.00  0.00    +0.000 C 
ATOM     10  H   UNL     1       2.918   8.806  -0.253  0.00  0.00    +0.000 HD
ATOM     11  H   UNL     1       4.647   8.958  -0.604  0.00  0.00    +0.000 HD
ATOM     12  H   UNL     1       4.143   8.322   0.971  0.00  0.00    +0.000 HD
ENDBRANCH   8   9
ENDBRANCH   2   8
TORSDOF 3
ENDMDL
MODEL 2
REMARK VINA RESULT:    -3.381      1.734      2.069
REMARK INTER + INTRA:          -3.776
REMARK INTER:                  -3.776
REMARK INTRA:                   0.000
REMARK UNBOUND:                 0.000
REMARK  Name = 650
REMARK  3 active torsions:
REMARK  status: ('A' for Active; 'I' for Inactive)
REMARK    1  A    between atoms: C_3  and  C_4
REMARK    2  A    between atoms: C_3  and  C_5
REMARK    3  A    between atoms: C_4  and  C_6
REMARK                            x       y       z     vdW  Elec       q    Type
REMARK                         _______ _______ _______ _____ _____    ______ ____
ROOT
ATOM      1  O   UNL     1       3.188  11.603   1.240  0.00  0.00    +0.000 OA
ATOM      2  C   UNL     1       3.547  10.786   0.402  0.00  0.00    +0.000 C 
ENDROOT
BRANCH   2   3
ATOM      3  C   UNL     1       3.598  11.074  -1.069  0.00  0.00    +0.000 C 
ATOM      4  H   UNL     1       3.500  12.148  -1.245  0.00  0.00    +0.000 HD
ATOM      5  H   UNL     1       2.763  10.569  -1.564  0.00  0.00    +0.000 HD
ATOM      6  H   UNL     1       4.528  10.694  -1.495  0.00  0.00    +0.000 HD
ENDBRANCH   2   3
BRANCH   2   8
ATOM      7  O   UNL     1       4.745   8.775   0.196  0.00  0.00    +0.000 OA
ATOM      8  C   UNL     1       3.959   9.412   0.886  0.00  0.00    +0.000 C 
BRANCH   8   9
ATOM      9  C   UNL     1       3.389   8.905   2.177  0.00  0.00    +0.000 C 
ATOM     10  H   UNL     1       2.475   9.451   2.424  0.00  0.00    +0.000 HD
ATOM     11  H   UNL     1       3.136   7.846   2.068  0.00  0.00    +0.000 HD
ATOM     12  H   UNL     1       4.126   9.001   2.977  0.00  0.00    +0.000 HD
ENDBRANCH   8   9
ENDBRANCH   2   8
TORSDOF 3
ENDMDL
MODEL 3
REMARK VINA RESULT:    -3.378      1.517      2.440
REMARK INTER + INTRA:          -3.773
REMARK INTER:                  -3.773
REMARK INTRA:                   0.000
REMARK UNBOUND:                 0.000
REMARK  Name = 650
REMARK  3 active torsions:
REMARK  status: ('A' for Active; 'I' for Inactive)
REMARK    1  A    between atoms: C_3  and  C_4
REMARK    2  A    between atoms: C_3  and  C_5
REMARK    3  A    between atoms: C_4  and  C_6
REMARK                            x       y       z     vdW  Elec       q    Type
REMARK                         _______ _______ _______ _____ _____    ______ ____
ROOT
ATOM      1  O   UNL     1       3.161   9.720   2.491  0.00  0.00    +0.000 OA
ATOM      2  C   UNL     1       3.863   9.830   1.494  0.00  0.00    +0.000 C 
ENDROOT
BRANCH   2   3
ATOM      3  C   UNL     1       4.986   8.893   1.164  0.00  0.00    +0.000 C 
ATOM      4  H   UNL     1       4.588   7.952   0.775  0.00  0.00    +0.000 HD
ATOM      5  H   UNL     1       5.553   8.675   2.073  0.00  0.00    +0.000 HD
ATOM      6  H   UNL     1       5.662   9.355   0.442  0.00  0.00    +0.000 HD
ENDBRANCH   2   3
BRANCH   2   8
ATOM      7  O   UNL     1       2.995  11.957   1.002  0.00  0.00    +0.000 OA
ATOM      8  C   UNL     1       3.575  10.978   0.550  0.00  0.00    +0.000 C 
BRANCH   8   9
ATOM      9  C   UNL     1       4.009  10.858  -0.880  0.00  0.00    +0.000 C 
ATOM     10  H   UNL     1       3.556  11.652  -1.478  0.00  0.00    +0.000 HD
ATOM     11  H   UNL     1       5.096  10.965  -0.936  0.00  0.00    +0.000 HD
ATOM     12  H   UNL     1       3.741   9.875  -1.273  0.00  0.00    +0.000 HD
ENDBRANCH   8   9
ENDBRANCH   2   8
TORSDOF 3
ENDMDL
MODEL 4
REMARK VINA RESULT:    -3.300     28.625     29.251
REMARK INTER + INTRA:          -3.685
REMARK INTER:                  -3.685
REMARK INTRA:                   0.000
REMARK UNBOUND:                 0.000
REMARK  Name = 650
REMARK  3 active torsions:
REMARK  status: ('A' for Active; 'I' for Inactive)
REMARK    1  A    between atoms: C_3  and  C_4
REMARK    2  A    between atoms: C_3  and  C_5
REMARK    3  A    between atoms: C_4  and  C_6
REMARK                            x       y       z     vdW  Elec       q    Type
REMARK                         _______ _______ _______ _____ _____    ______ ____
ROOT
ATOM      1  O   UNL     1      -9.314  -8.977  14.234  0.00  0.00    +0.000 OA
ATOM      2  C   UNL     1      -9.483 -10.005  14.878  0.00  0.00    +0.000 C 
ENDROOT
BRANCH   2   3
ATOM      3  C   UNL     1     -10.614 -10.203  15.841  0.00  0.00    +0.000 C 
ATOM      4  H   UNL     1     -10.642 -11.242  16.179  0.00  0.00    +0.000 HD
ATOM      5  H   UNL     1     -11.559  -9.982  15.338  0.00  0.00    +0.000 HD
ATOM      6  H   UNL     1     -10.511  -9.523  16.689  0.00  0.00    +0.000 HD
ENDBRANCH   2   3
BRANCH   2   8
ATOM      7  O   UNL     1      -7.969 -11.250  13.582  0.00  0.00    +0.000 OA
ATOM      8  C   UNL     1      -8.489 -11.131  14.684  0.00  0.00    +0.000 C 
BRANCH   8   9
ATOM      9  C   UNL     1      -8.195 -12.035  15.843  0.00  0.00    +0.000 C 
ATOM     10  H   UNL     1      -7.231 -11.774  16.288  0.00  0.00    +0.000 HD
ATOM     11  H   UNL     1      -8.969 -11.909  16.605  0.00  0.00    +0.000 HD
ATOM     12  H   UNL     1      -8.200 -13.078  15.517  0.00  0.00    +0.000 HD
ENDBRANCH   8   9
ENDBRANCH   2   8
TORSDOF 3
ENDMDL
MODEL 5
REMARK VINA RESULT:    -3.262      1.500      2.219
REMARK INTER + INTRA:          -3.643
REMARK INTER:                  -3.643
REMARK INTRA:                   0.000
REMARK UNBOUND:                 0.000
REMARK  Name = 650
REMARK  3 active torsions:
REMARK  status: ('A' for Active; 'I' for Inactive)
REMARK    1  A    between atoms: C_3  and  C_4
REMARK    2  A    between atoms: C_3  and  C_5
REMARK    3  A    between atoms: C_4  and  C_6
REMARK                            x       y       z     vdW  Elec       q    Type
REMARK                         _______ _______ _______ _____ _____    ______ ____
ROOT
ATOM      1  O   UNL     1       2.859  11.737   0.773  0.00  0.00    +0.000 OA
ATOM      2  C   UNL     1       3.645  11.357  -0.085  0.00  0.00    +0.000 C 
ENDROOT
BRANCH   2   3
ATOM      3  C   UNL     1       3.279  11.188  -1.529  0.00  0.00    +0.000 C 
ATOM      4  H   UNL     1       3.354  10.136  -1.816  0.00  0.00    +0.000 HD
ATOM      5  H   UNL     1       3.976  11.762  -2.147  0.00  0.00    +0.000 HD
ATOM      6  H   UNL     1       2.271  11.568  -1.709  0.00  0.00    +0.000 HD
ENDBRANCH   2   3
BRANCH   2   8
ATOM      7  O   UNL     1       5.915  11.905   0.176  0.00  0.00    +0.000 OA
ATOM      8  C   UNL     1       5.062  11.043   0.345  0.00  0.00    +0.000 C 
BRANCH   8   9
ATOM      9  C   UNL     1       5.347   9.702   0.952  0.00  0.00    +0.000 C 
ATOM     10  H   UNL     1       6.186   9.776   1.649  0.00  0.00    +0.000 HD
ATOM     11  H   UNL     1       4.469   9.364   1.509  0.00  0.00    +0.000 HD
ATOM     12  H   UNL     1       5.558   8.971   0.168  0.00  0.00    +0.000 HD
ENDBRANCH   8   9
ENDBRANCH   2   8
TORSDOF 3
ENDMDL
MODEL 6
REMARK VINA RESULT:    -3.195     12.688     13.224
REMARK INTER + INTRA:          -3.568
REMARK INTER:                  -3.568
REMARK INTRA:                   0.000
REMARK UNBOUND:                 0.000
REMARK  Name = 650
REMARK  3 active torsions:
REMARK  status: ('A' for Active; 'I' for Inactive)
REMARK    1  A    between atoms: C_3  and  C_4
REMARK    2  A    between atoms: C_3  and  C_5
REMARK    3  A    between atoms: C_4  and  C_6
REMARK                            x       y       z     vdW  Elec       q    Type
REMARK                         _______ _______ _______ _____ _____    ______ ____
ROOT
ATOM      1  O   UNL     1      -2.241   6.720 -10.941  0.00  0.00    +0.000 OA
ATOM      2  C   UNL     1      -2.780   7.355 -10.044  0.00  0.00    +0.000 C 
ENDROOT
BRANCH   2   3
ATOM      3  C   UNL     1      -3.648   6.733  -8.992  0.00  0.00    +0.000 C 
ATOM      4  H   UNL     1      -3.294   7.014  -7.998  0.00  0.00    +0.000 HD
ATOM      5  H   UNL     1      -3.594   5.644  -9.079  0.00  0.00    +0.000 HD
ATOM      6  H   UNL     1      -4.687   7.036  -9.134  0.00  0.00    +0.000 HD
ENDBRANCH   2   3
BRANCH   2   8
ATOM      7  O   UNL     1      -1.929   9.308  -9.052  0.00  0.00    +0.000 OA
ATOM      8  C   UNL     1      -2.550   8.851 -10.003  0.00  0.00    +0.000 C 
BRANCH   8   9
ATOM      9  C   UNL     1      -3.092   9.692 -11.120  0.00  0.00    +0.000 C 
ATOM     10  H   UNL     1      -3.730  10.483 -10.719  0.00  0.00    +0.000 HD
ATOM     11  H   UNL     1      -2.261  10.160 -11.654  0.00  0.00    +0.000 HD
ATOM     12  H   UNL     1      -3.645   9.068 -11.825  0.00  0.00    +0.000 HD
ENDBRANCH   8   9
ENDBRANCH   2   8
TORSDOF 3
ENDMDL
MODEL 7
REMARK VINA RESULT:    -3.055     12.890     13.250
REMARK INTER + INTRA:          -3.412
REMARK INTER:                  -3.412
REMARK INTRA:                   0.000
REMARK UNBOUND:                 0.000
REMARK  Name = 650
REMARK  3 active torsions:
REMARK  status: ('A' for Active; 'I' for Inactive)
REMARK    1  A    between atoms: C_3  and  C_4
REMARK    2  A    between atoms: C_3  and  C_5
REMARK    3  A    between atoms: C_4  and  C_6
REMARK                            x       y       z     vdW  Elec       q    Type
REMARK                         _______ _______ _______ _____ _____    ______ ____
ROOT
ATOM      1  O   UNL     1      -1.417   8.677 -11.138  0.00  0.00    +0.000 OA
ATOM      2  C   UNL     1      -2.287   8.504 -10.294  0.00  0.00    +0.000 C 
ENDROOT
BRANCH   2   3
ATOM      3  C   UNL     1      -2.705   9.552  -9.307  0.00  0.00    +0.000 C 
ATOM      4  H   UNL     1      -3.308   9.103  -8.515  0.00  0.00    +0.000 HD
ATOM      5  H   UNL     1      -3.315  10.304  -9.816  0.00  0.00    +0.000 HD
ATOM      6  H   UNL     1      -1.827  10.049  -8.891  0.00  0.00    +0.000 HD
ENDBRANCH   2   3
BRANCH   2   8
ATOM      7  O   UNL     1      -3.083   6.538 -11.305  0.00  0.00    +0.000 OA
ATOM      8  C   UNL     1      -2.972   7.155 -10.253  0.00  0.00    +0.000 C 
BRANCH   8   9
ATOM      9  C   UNL     1      -3.475   6.645  -8.936  0.00  0.00    +0.000 C 
ATOM     10  H   UNL     1      -3.101   7.272  -8.122  0.00  0.00    +0.000 HD
ATOM     11  H   UNL     1      -4.568   6.688  -8.926  0.00  0.00    +0.000 HD
ATOM     12  H   UNL     1      -3.172   5.606  -8.794  0.00  0.00    +0.000 HD
ENDBRANCH   8   9
ENDBRANCH   2   8
TORSDOF 3
ENDMDL
MODEL 8
REMARK VINA RESULT:    -3.014     29.181     29.645
REMARK INTER + INTRA:          -3.367
REMARK INTER:                  -3.367
REMARK INTRA:                   0.000
REMARK UNBOUND:                 0.000
REMARK  Name = 650
REMARK  3 active torsions:
REMARK  status: ('A' for Active; 'I' for Inactive)
REMARK    1  A    between atoms: C_3  and  C_4
REMARK    2  A    between atoms: C_3  and  C_5
REMARK    3  A    between atoms: C_4  and  C_6
REMARK                            x       y       z     vdW  Elec       q    Type
REMARK                         _______ _______ _______ _____ _____    ______ ____
ROOT
ATOM      1  O   UNL     1      -8.445 -10.752  13.804  0.00  0.00    +0.000 OA
ATOM      2  C   UNL     1      -8.997 -10.964  14.876  0.00  0.00    +0.000 C 
ENDROOT
BRANCH   2   3
ATOM      3  C   UNL     1      -8.522 -11.987  15.864  0.00  0.00    +0.000 C 
ATOM      4  H   UNL     1      -9.313 -12.208  16.585  0.00  0.00    +0.000 HD
ATOM      5  H   UNL     1      -7.663 -11.588  16.411  0.00  0.00    +0.000 HD
ATOM      6  H   UNL     1      -8.206 -12.894  15.346  0.00  0.00    +0.000 HD
ENDBRANCH   2   3
BRANCH   2   8
ATOM      7  O   UNL     1     -10.485  -9.187  14.497  0.00  0.00    +0.000 OA
ATOM      8  C   UNL     1     -10.224 -10.145  15.213  0.00  0.00    +0.000 C 
BRANCH   8   9
ATOM      9  C   UNL     1     -11.052 -10.545  16.397  0.00  0.00    +0.000 C 
ATOM     10  H   UNL     1     -10.408 -10.723  17.262  0.00  0.00    +0.000 HD
ATOM     11  H   UNL     1     -11.742  -9.734  16.645  0.00  0.00    +0.000 HD
ATOM     12  H   UNL     1     -11.639 -11.435  16.162  0.00  0.00    +0.000 HD
ENDBRANCH   8   9
ENDBRANCH   2   8
TORSDOF 3
ENDMDL
MODEL 9
REMARK VINA RESULT:    -2.975     27.729     28.807
REMARK INTER + INTRA:          -3.323
REMARK INTER:                  -3.323
REMARK INTRA:                   0.000
REMARK UNBOUND:                 0.000
REMARK  Name = 650
REMARK  3 active torsions:
REMARK  status: ('A' for Active; 'I' for Inactive)
REMARK    1  A    between atoms: C_3  and  C_4
REMARK    2  A    between atoms: C_3  and  C_5
REMARK    3  A    between atoms: C_4  and  C_6
REMARK                            x       y       z     vdW  Elec       q    Type
REMARK                         _______ _______ _______ _____ _____    ______ ____
ROOT
ATOM      1  O   UNL     1     -18.463  -5.614   5.128  0.00  0.00    +0.000 OA
ATOM      2  C   UNL     1     -19.219  -5.160   4.278  0.00  0.00    +0.000 C 
ENDROOT
BRANCH   2   3
ATOM      3  C   UNL     1     -20.399  -4.292   4.597  0.00  0.00    +0.000 C 
ATOM      4  H   UNL     1     -20.284  -3.852   5.591  0.00  0.00    +0.000 HD
ATOM      5  H   UNL     1     -21.306  -4.903   4.597  0.00  0.00    +0.000 HD
ATOM      6  H   UNL     1     -20.510  -3.514   3.839  0.00  0.00    +0.000 HD
ENDBRANCH   2   3
BRANCH   2   8
ATOM      7  O   UNL     1     -19.708  -6.265   2.263  0.00  0.00    +0.000 OA
ATOM      8  C   UNL     1     -18.939  -5.499   2.830  0.00  0.00    +0.000 C 
BRANCH   8   9
ATOM      9  C   UNL     1     -17.742  -4.885   2.167  0.00  0.00    +0.000 C 
ATOM     10  H   UNL     1     -16.973  -5.643   2.003  0.00  0.00    +0.000 HD
ATOM     11  H   UNL     1     -18.037  -4.481   1.195  0.00  0.00    +0.000 HD
ATOM     12  H   UNL     1     -17.355  -4.065   2.776  0.00  0.00    +0.000 HD
ENDBRANCH   8   9
ENDBRANCH   2   8
TORSDOF 3
ENDMDL
MODEL 10
REMARK VINA RESULT:    -2.867     13.187     13.490
REMARK INTER + INTRA:          -3.202
REMARK INTER:                  -3.202
REMARK INTRA:                   0.000
REMARK UNBOUND:                 0.000
REMARK  Name = 650
REMARK  3 active torsions:
REMARK  status: ('A' for Active; 'I' for Inactive)
REMARK    1  A    between atoms: C_3  and  C_4
REMARK    2  A    between atoms: C_3  and  C_5
REMARK    3  A    between atoms: C_4  and  C_6
REMARK                            x       y       z     vdW  Elec       q    Type
REMARK                         _______ _______ _______ _____ _____    ______ ____
ROOT
ATOM      1  O   UNL     1      -0.916  10.130 -10.265  0.00  0.00    +0.000 OA
ATOM      2  C   UNL     1      -1.662   9.479 -10.986  0.00  0.00    +0.000 C 
ENDROOT
BRANCH   2   3
ATOM      3  C   UNL     1      -3.134   9.736 -11.104  0.00  0.00    +0.000 C 
ATOM      4  H   UNL     1      -3.634   9.492 -10.163  0.00  0.00    +0.000 HD
ATOM      5  H   UNL     1      -3.550   9.096 -11.888  0.00  0.00    +0.000 HD
ATOM      6  H   UNL     1      -3.314  10.776 -11.380  0.00  0.00    +0.000 HD
ENDBRANCH   2   3
BRANCH   2   8
ATOM      7  O   UNL     1      -0.119   8.629 -12.541  0.00  0.00    +0.000 OA
ATOM      8  C   UNL     1      -1.054   8.356 -11.799  0.00  0.00    +0.000 C 
BRANCH   8   9
ATOM      9  C   UNL     1      -1.623   6.976 -11.657  0.00  0.00    +0.000 C 
ATOM     10  H   UNL     1      -1.511   6.628 -10.627  0.00  0.00    +0.000 HD
ATOM     11  H   UNL     1      -2.690   7.000 -11.895  0.00  0.00    +0.000 HD
ATOM     12  H   UNL     1      -1.132   6.293 -12.352  0.00  0.00    +0.000 HD
ENDBRANCH   8   9
ENDBRANCH   2   8
TORSDOF 3
ENDMDL
