MODEL 1
REMARK VINA RESULT:    -4.270      0.000      0.000
REMARK INTER + INTRA:          -6.697
REMARK INTER:                  -6.354
REMARK INTRA:                  -0.343
REMARK UNBOUND:                -0.430
REMARK  Name = 31249
REMARK  9 active torsions:
REMARK  status: ('A' for Active; 'I' for Inactive)
REMARK    1  A    between atoms: O_1  and  C_7
REMARK    2  A    between atoms: O_1  and  C_9
REMARK    3  A    between atoms: O_2  and  C_8
REMARK    4  A    between atoms: O_2  and  C_10
REMARK    5  A    between atoms: C_5  and  C_6
REMARK    6  A    between atoms: C_5  and  C_7
REMARK    7  A    between atoms: C_6  and  C_8
REMARK    8  A    between atoms: C_9  and  C_11
REMARK    9  A    between atoms: C_10  and  C_12
REMARK                            x       y       z     vdW  Elec       q    Type
REMARK                         _______ _______ _______ _____ _____    ______ ____
ROOT
ATOM      1  C   UNL     1       3.335   9.143   2.085  0.00  0.00    +0.000 C 
ATOM      2  H   UNL     1       2.804   9.494   2.978  0.00  0.00    +0.000 HD
ATOM      3  H   UNL     1       2.634   8.567   1.469  0.00  0.00    +0.000 HD
ENDROOT
BRANCH   1   4
ATOM      4  C   UNL     1       4.503   8.253   2.497  0.00  0.00    +0.000 C 
ATOM      5  H   UNL     1       4.174   7.207   2.532  0.00  0.00    +0.000 HD
ATOM      6  H   UNL     1       5.310   8.337   1.759  0.00  0.00    +0.000 HD
BRANCH   4   8
ATOM      7  O   UNL     1       4.411   9.015   4.808  0.00  0.00    +0.000 OA
ATOM      8  C   UNL     1       5.066   8.616   3.855  0.00  0.00    +0.000 C 
BRANCH   8   9
ATOM      9  O   UNL     1       6.419   8.431   3.835  0.00  0.00    +0.000 OA
BRANCH   9  10
ATOM     10  C   UNL     1       7.020   8.147   5.103  0.00  0.00    +0.000 C 
ATOM     11  H   UNL     1       6.246   8.126   5.877  0.00  0.00    +0.000 HD
ATOM     12  H   UNL     1       7.519   7.172   5.061  0.00  0.00    +0.000 HD
BRANCH  10  13
ATOM     13  C   UNL     1       8.034   9.226   5.421  0.00  0.00    +0.000 C 
ATOM     14  H   UNL     1       8.439   9.664   4.505  0.00  0.00    +0.000 HD
ATOM     15  H   UNL     1       7.576  10.020   6.020  0.00  0.00    +0.000 HD
ATOM     16  H   UNL     1       8.859   8.817   6.014  0.00  0.00    +0.000 HD
ENDBRANCH  10  13
ENDBRANCH   9  10
ENDBRANCH   8   9
ENDBRANCH   4   8
ENDBRANCH   1   4
BRANCH   1  18
ATOM     17  O   UNL     1       3.206  11.439   1.284  0.00  0.00    +0.000 OA
ATOM     18  C   UNL     1       3.773  10.355   1.290  0.00  0.00    +0.000 C 
BRANCH  18  19
ATOM     19  O   UNL     1       4.896  10.034   0.579  0.00  0.00    +0.000 OA
BRANCH  19  20
ATOM     20  C   UNL     1       5.142  10.840  -0.578  0.00  0.00    +0.000 C 
ATOM     21  H   UNL     1       5.032  10.227  -1.479  0.00  0.00    +0.000 HD
ATOM     22  H   UNL     1       4.421  11.665  -0.609  0.00  0.00    +0.000 HD
BRANCH  20  23
ATOM     23  C   UNL     1       6.550  11.393  -0.503  0.00  0.00    +0.000 C 
ATOM     24  H   UNL     1       7.051  11.062   0.410  0.00  0.00    +0.000 HD
ATOM     25  H   UNL     1       7.138  11.067  -1.368  0.00  0.00    +0.000 HD
ATOM     26  H   UNL     1       6.535  12.486  -0.521  0.00  0.00    +0.000 HD
ENDBRANCH  20  23
ENDBRANCH  19  20
ENDBRANCH  18  19
ENDBRANCH   1  18
TORSDOF 9
ENDMDL
MODEL 2
REMARK VINA RESULT:    -4.211      1.433      5.224
REMARK INTER + INTRA:          -6.611
REMARK INTER:                  -6.226
REMARK INTRA:                  -0.385
REMARK UNBOUND:                -0.430
REMARK  Name = 31249
REMARK  9 active torsions:
REMARK  status: ('A' for Active; 'I' for Inactive)
REMARK    1  A    between atoms: O_1  and  C_7
REMARK    2  A    between atoms: O_1  and  C_9
REMARK    3  A    between atoms: O_2  and  C_8
REMARK    4  A    between atoms: O_2  and  C_10
REMARK    5  A    between atoms: C_5  and  C_6
REMARK    6  A    between atoms: C_5  and  C_7
REMARK    7  A    between atoms: C_6  and  C_8
REMARK    8  A    between atoms: C_9  and  C_11
REMARK    9  A    between atoms: C_10  and  C_12
REMARK                            x       y       z     vdW  Elec       q    Type
REMARK                         _______ _______ _______ _____ _____    ______ ____
ROOT
ATOM      1  C   UNL     1       3.561   8.355   2.193  0.00  0.00    +0.000 C 
ATOM      2  H   UNL     1       3.608   7.649   1.354  0.00  0.00    +0.000 HD
ATOM      3  H   UNL     1       2.548   8.328   2.611  0.00  0.00    +0.000 HD
ENDROOT
BRANCH   1   4
ATOM      4  C   UNL     1       3.871   9.764   1.696  0.00  0.00    +0.000 C 
ATOM      5  H   UNL     1       2.942  10.259   1.390  0.00  0.00    +0.000 HD
ATOM      6  H   UNL     1       4.324  10.349   2.505  0.00  0.00    +0.000 HD
BRANCH   4   8
ATOM      7  O   UNL     1       5.426   8.801   0.089  0.00  0.00    +0.000 OA
ATOM      8  C   UNL     1       4.821   9.773   0.517  0.00  0.00    +0.000 C 
BRANCH   8   9
ATOM      9  O   UNL     1       4.893  11.044   0.020  0.00  0.00    +0.000 OA
BRANCH   9  10
ATOM     10  C   UNL     1       3.636  11.674  -0.246  0.00  0.00    +0.000 C 
ATOM     11  H   UNL     1       2.900  11.347   0.496  0.00  0.00    +0.000 HD
ATOM     12  H   UNL     1       3.752  12.761  -0.190  0.00  0.00    +0.000 HD
BRANCH  10  13
ATOM     13  C   UNL     1       3.172  11.281  -1.633  0.00  0.00    +0.000 C 
ATOM     14  H   UNL     1       3.061  10.196  -1.715  0.00  0.00    +0.000 HD
ATOM     15  H   UNL     1       2.212  11.752  -1.866  0.00  0.00    +0.000 HD
ATOM     16  H   UNL     1       3.886  11.622  -2.390  0.00  0.00    +0.000 HD
ENDBRANCH  10  13
ENDBRANCH   9  10
ENDBRANCH   8   9
ENDBRANCH   4   8
ENDBRANCH   1   4
BRANCH   1  18
ATOM     17  O   UNL     1       4.912   6.734   3.406  0.00  0.00    +0.000 OA
ATOM     18  C   UNL     1       4.524   7.884   3.261  0.00  0.00    +0.000 C 
BRANCH  18  19
ATOM     19  O   UNL     1       4.877   8.952   4.038  0.00  0.00    +0.000 OA
BRANCH  19  20
ATOM     20  C   UNL     1       5.394   8.627   5.333  0.00  0.00    +0.000 C 
ATOM     21  H   UNL     1       4.913   9.260   6.087  0.00  0.00    +0.000 HD
ATOM     22  H   UNL     1       5.187   7.574   5.555  0.00  0.00    +0.000 HD
BRANCH  20  23
ATOM     23  C   UNL     1       6.889   8.867   5.341  0.00  0.00    +0.000 C 
ATOM     24  H   UNL     1       7.156   9.645   6.061  0.00  0.00    +0.000 HD
ATOM     25  H   UNL     1       7.426   7.948   5.598  0.00  0.00    +0.000 HD
ATOM     26  H   UNL     1       7.235   9.171   4.348  0.00  0.00    +0.000 HD
ENDBRANCH  20  23
ENDBRANCH  19  20
ENDBRANCH  18  19
ENDBRANCH   1  18
TORSDOF 9
ENDMDL
MODEL 3
REMARK VINA RESULT:    -4.165      2.429      4.386
REMARK INTER + INTRA:          -6.543
REMARK INTER:                  -6.176
REMARK INTRA:                  -0.367
REMARK UNBOUND:                -0.430
REMARK  Name = 31249
REMARK  9 active torsions:
REMARK  status: ('A' for Active; 'I' for Inactive)
REMARK    1  A    between atoms: O_1  and  C_7
REMARK    2  A    between atoms: O_1  and  C_9
REMARK    3  A    between atoms: O_2  and  C_8
REMARK    4  A    between atoms: O_2  and  C_10
REMARK    5  A    between atoms: C_5  and  C_6
REMARK    6  A    between atoms: C_5  and  C_7
REMARK    7  A    between atoms: C_6  and  C_8
REMARK    8  A    between atoms: C_9  and  C_11
REMARK    9  A    between atoms: C_10  and  C_12
REMARK                            x       y       z     vdW  Elec       q    Type
REMARK                         _______ _______ _______ _____ _____    ______ ____
ROOT
ATOM      1  C   UNL     1       6.318   8.985   1.425  0.00  0.00    +0.000 C 
ATOM      2  H   UNL     1       6.720   7.971   1.542  0.00  0.00    +0.000 HD
ATOM      3  H   UNL     1       6.359   9.489   2.398  0.00  0.00    +0.000 HD
ENDROOT
BRANCH   1   4
ATOM      4  C   UNL     1       4.870   8.912   0.950  0.00  0.00    +0.000 C 
ATOM      5  H   UNL     1       4.778   9.403  -0.026  0.00  0.00    +0.000 HD
ATOM      6  H   UNL     1       4.570   7.864   0.839  0.00  0.00    +0.000 HD
BRANCH   4   8
ATOM      7  O   UNL     1       3.879   9.414   3.117  0.00  0.00    +0.000 OA
ATOM      8  C   UNL     1       3.905   9.581   1.906  0.00  0.00    +0.000 C 
BRANCH   8   9
ATOM      9  O   UNL     1       3.067  10.391   1.192  0.00  0.00    +0.000 OA
BRANCH   9  10
ATOM     10  C   UNL     1       3.685  11.530   0.583  0.00  0.00    +0.000 C 
ATOM     11  H   UNL     1       3.390  12.437   1.121  0.00  0.00    +0.000 HD
ATOM     12  H   UNL     1       4.774  11.421   0.623  0.00  0.00    +0.000 HD
BRANCH  10  13
ATOM     13  C   UNL     1       3.234  11.622  -0.860  0.00  0.00    +0.000 C 
ATOM     14  H   UNL     1       3.121  12.665  -1.168  0.00  0.00    +0.000 HD
ATOM     15  H   UNL     1       3.957  11.134  -1.521  0.00  0.00    +0.000 HD
ATOM     16  H   UNL     1       2.278  11.106  -0.999  0.00  0.00    +0.000 HD
ENDBRANCH  10  13
ENDBRANCH   9  10
ENDBRANCH   8   9
ENDBRANCH   4   8
ENDBRANCH   1   4
BRANCH   1  18
ATOM     17  O   UNL     1       7.060  10.906   0.127  0.00  0.00    +0.000 OA
ATOM     18  C   UNL     1       7.212   9.741   0.466  0.00  0.00    +0.000 C 
BRANCH  18  19
ATOM     19  O   UNL     1       8.206   8.905   0.038  0.00  0.00    +0.000 OA
BRANCH  19  20
ATOM     20  C   UNL     1       8.412   8.868  -1.378  0.00  0.00    +0.000 C 
ATOM     21  H   UNL     1       7.979   7.947  -1.785  0.00  0.00    +0.000 HD
ATOM     22  H   UNL     1       7.925   9.735  -1.840  0.00  0.00    +0.000 HD
BRANCH  20  23
ATOM     23  C   UNL     1       9.899   8.904  -1.661  0.00  0.00    +0.000 C 
ATOM     24  H   UNL     1      10.184   8.107  -2.352  0.00  0.00    +0.000 HD
ATOM     25  H   UNL     1      10.185   9.868  -2.095  0.00  0.00    +0.000 HD
ATOM     26  H   UNL     1      10.470   8.790  -0.735  0.00  0.00    +0.000 HD
ENDBRANCH  20  23
ENDBRANCH  19  20
ENDBRANCH  18  19
ENDBRANCH   1  18
TORSDOF 9
ENDMDL
MODEL 4
REMARK VINA RESULT:    -4.123     27.411     28.644
REMARK INTER + INTRA:          -6.482
REMARK INTER:                  -6.093
REMARK INTRA:                  -0.389
REMARK UNBOUND:                -0.430
REMARK  Name = 31249
REMARK  9 active torsions:
REMARK  status: ('A' for Active; 'I' for Inactive)
REMARK    1  A    between atoms: O_1  and  C_7
REMARK    2  A    between atoms: O_1  and  C_9
REMARK    3  A    between atoms: O_2  and  C_8
REMARK    4  A    between atoms: O_2  and  C_10
REMARK    5  A    between atoms: C_5  and  C_6
REMARK    6  A    between atoms: C_5  and  C_7
REMARK    7  A    between atoms: C_6  and  C_8
REMARK    8  A    between atoms: C_9  and  C_11
REMARK    9  A    between atoms: C_10  and  C_12
REMARK                            x       y       z     vdW  Elec       q    Type
REMARK                         _______ _______ _______ _____ _____    ______ ____
ROOT
ATOM      1  C   UNL     1     -20.665  -4.533   4.573  0.00  0.00    +0.000 C 
ATOM      2  H   UNL     1     -21.053  -4.258   3.585  0.00  0.00    +0.000 HD
ATOM      3  H   UNL     1     -21.393  -5.191   5.060  0.00  0.00    +0.000 HD
ENDROOT
BRANCH   1   4
ATOM      4  C   UNL     1     -20.467  -3.277   5.416  0.00  0.00    +0.000 C 
ATOM      5  H   UNL     1     -20.996  -3.387   6.370  0.00  0.00    +0.000 HD
ATOM      6  H   UNL     1     -19.400  -3.138   5.627  0.00  0.00    +0.000 HD
BRANCH   4   8
ATOM      7  O   UNL     1     -21.078  -1.869   3.526  0.00  0.00    +0.000 OA
ATOM      8  C   UNL     1     -20.981  -2.027   4.734  0.00  0.00    +0.000 C 
BRANCH   8   9
ATOM      9  O   UNL     1     -21.309  -1.107   5.690  0.00  0.00    +0.000 OA
BRANCH   9  10
ATOM     10  C   UNL     1     -20.512  -1.143   6.878  0.00  0.00    +0.000 C 
ATOM     11  H   UNL     1     -20.225  -2.178   7.094  0.00  0.00    +0.000 HD
ATOM     12  H   UNL     1     -19.611  -0.538   6.733  0.00  0.00    +0.000 HD
BRANCH  10  13
ATOM     13  C   UNL     1     -21.321  -0.587   8.031  0.00  0.00    +0.000 C 
ATOM     14  H   UNL     1     -22.383  -0.818   7.911  0.00  0.00    +0.000 HD
ATOM     15  H   UNL     1     -20.974  -1.004   8.982  0.00  0.00    +0.000 HD
ATOM     16  H   UNL     1     -21.200   0.500   8.098  0.00  0.00    +0.000 HD
ENDBRANCH  10  13
ENDBRANCH   9  10
ENDBRANCH   8   9
ENDBRANCH   4   8
ENDBRANCH   1   4
BRANCH   1  18
ATOM     17  O   UNL     1     -18.559  -5.552   5.248  0.00  0.00    +0.000 OA
ATOM     18  C   UNL     1     -19.384  -5.314   4.376  0.00  0.00    +0.000 C 
BRANCH  18  19
ATOM     19  O   UNL     1     -19.298  -5.701   3.067  0.00  0.00    +0.000 OA
BRANCH  19  20
ATOM     20  C   UNL     1     -18.839  -4.696   2.158  0.00  0.00    +0.000 C 
ATOM     21  H   UNL     1     -19.362  -4.804   1.201  0.00  0.00    +0.000 HD
ATOM     22  H   UNL     1     -19.045  -3.704   2.575  0.00  0.00    +0.000 HD
BRANCH  20  23
ATOM     23  C   UNL     1     -17.349  -4.864   1.949  0.00  0.00    +0.000 C 
ATOM     24  H   UNL     1     -16.893  -3.928   1.619  0.00  0.00    +0.000 HD
ATOM     25  H   UNL     1     -16.864  -5.187   2.877  0.00  0.00    +0.000 HD
ATOM     26  H   UNL     1     -17.150  -5.638   1.201  0.00  0.00    +0.000 HD
ENDBRANCH  20  23
ENDBRANCH  19  20
ENDBRANCH  18  19
ENDBRANCH   1  18
TORSDOF 9
ENDMDL
MODEL 5
REMARK VINA RESULT:    -4.103     27.457     28.847
REMARK INTER + INTRA:          -6.452
REMARK INTER:                  -6.064
REMARK INTRA:                  -0.388
REMARK UNBOUND:                -0.430
REMARK  Name = 31249
REMARK  9 active torsions:
REMARK  status: ('A' for Active; 'I' for Inactive)
REMARK    1  A    between atoms: O_1  and  C_7
REMARK    2  A    between atoms: O_1  and  C_9
REMARK    3  A    between atoms: O_2  and  C_8
REMARK    4  A    between atoms: O_2  and  C_10
REMARK    5  A    between atoms: C_5  and  C_6
REMARK    6  A    between atoms: C_5  and  C_7
REMARK    7  A    between atoms: C_6  and  C_8
REMARK    8  A    between atoms: C_9  and  C_11
REMARK    9  A    between atoms: C_10  and  C_12
REMARK                            x       y       z     vdW  Elec       q    Type
REMARK                         _______ _______ _______ _____ _____    ______ ____
ROOT
ATOM      1  C   UNL     1     -20.717  -3.749   5.583  0.00  0.00    +0.000 C 
ATOM      2  H   UNL     1     -19.919  -3.344   6.218  0.00  0.00    +0.000 HD
ATOM      3  H   UNL     1     -21.098  -4.666   6.048  0.00  0.00    +0.000 HD
ENDROOT
BRANCH   1   4
ATOM      4  C   UNL     1     -20.158  -4.073   4.200  0.00  0.00    +0.000 C 
ATOM      5  H   UNL     1     -20.982  -4.314   3.518  0.00  0.00    +0.000 HD
ATOM      6  H   UNL     1     -19.625  -3.202   3.804  0.00  0.00    +0.000 HD
BRANCH   4   8
ATOM      7  O   UNL     1     -18.496  -5.572   5.159  0.00  0.00    +0.000 OA
ATOM      8  C   UNL     1     -19.202  -5.247   4.215  0.00  0.00    +0.000 C 
BRANCH   8   9
ATOM      9  O   UNL     1     -19.254  -5.874   3.002  0.00  0.00    +0.000 OA
BRANCH   9  10
ATOM     10  C   UNL     1     -18.913  -5.060   1.874  0.00  0.00    +0.000 C 
ATOM     11  H   UNL     1     -19.283  -5.533   0.958  0.00  0.00    +0.000 HD
ATOM     12  H   UNL     1     -19.372  -4.072   1.985  0.00  0.00    +0.000 HD
BRANCH  10  13
ATOM     13  C   UNL     1     -17.407  -4.919   1.806  0.00  0.00    +0.000 C 
ATOM     14  H   UNL     1     -16.934  -5.344   2.696  0.00  0.00    +0.000 HD
ATOM     15  H   UNL     1     -17.013  -5.427   0.920  0.00  0.00    +0.000 HD
ATOM     16  H   UNL     1     -17.122  -3.865   1.722  0.00  0.00    +0.000 HD
ENDBRANCH  10  13
ENDBRANCH   9  10
ENDBRANCH   8   9
ENDBRANCH   4   8
ENDBRANCH   1   4
BRANCH   1  18
ATOM     17  O   UNL     1     -22.715  -2.691   4.681  0.00  0.00    +0.000 OA
ATOM     18  C   UNL     1     -21.844  -2.740   5.538  0.00  0.00    +0.000 C 
BRANCH  18  19
ATOM     19  O   UNL     1     -21.721  -1.893   6.604  0.00  0.00    +0.000 OA
BRANCH  19  20
ATOM     20  C   UNL     1     -20.444  -1.262   6.744  0.00  0.00    +0.000 C 
ATOM     21  H   UNL     1     -20.353  -0.843   7.753  0.00  0.00    +0.000 HD
ATOM     22  H   UNL     1     -19.651  -2.001   6.583  0.00  0.00    +0.000 HD
BRANCH  20  23
ATOM     23  C   UNL     1     -20.327  -0.154   5.718  0.00  0.00    +0.000 C 
ATOM     24  H   UNL     1     -19.998   0.778   6.186  0.00  0.00    +0.000 HD
ATOM     25  H   UNL     1     -19.611  -0.429   4.936  0.00  0.00    +0.000 HD
ATOM     26  H   UNL     1     -21.288   0.017   5.225  0.00  0.00    +0.000 HD
ENDBRANCH  20  23
ENDBRANCH  19  20
ENDBRANCH  18  19
ENDBRANCH   1  18
TORSDOF 9
ENDMDL
MODEL 6
REMARK VINA RESULT:    -3.878     28.450     30.329
REMARK INTER + INTRA:          -6.123
REMARK INTER:                  -5.719
REMARK INTRA:                  -0.404
REMARK UNBOUND:                -0.430
REMARK  Name = 31249
REMARK  9 active torsions:
REMARK  status: ('A' for Active; 'I' for Inactive)
REMARK    1  A    between atoms: O_1  and  C_7
REMARK    2  A    between atoms: O_1  and  C_9
REMARK    3  A    between atoms: O_2  and  C_8
REMARK    4  A    between atoms: O_2  and  C_10
REMARK    5  A    between atoms: C_5  and  C_6
REMARK    6  A    between atoms: C_5  and  C_7
REMARK    7  A    between atoms: C_6  and  C_8
REMARK    8  A    between atoms: C_9  and  C_11
REMARK    9  A    between atoms: C_10  and  C_12
REMARK                            x       y       z     vdW  Elec       q    Type
REMARK                         _______ _______ _______ _____ _____    ______ ____
ROOT
ATOM      1  C   UNL     1      -9.390 -12.543  16.452  0.00  0.00    +0.000 C 
ATOM      2  H   UNL     1      -9.307 -13.411  15.787  0.00  0.00    +0.000 HD
ATOM      3  H   UNL     1     -10.452 -12.294  16.565  0.00  0.00    +0.000 HD
ENDROOT
BRANCH   1   4
ATOM      4  C   UNL     1      -8.649 -11.356  15.845  0.00  0.00    +0.000 C 
ATOM      5  H   UNL     1      -8.080 -10.838  16.627  0.00  0.00    +0.000 HD
ATOM      6  H   UNL     1      -7.945 -11.710  15.083  0.00  0.00    +0.000 HD
BRANCH   4   8
ATOM      7  O   UNL     1      -9.229  -9.357  14.581  0.00  0.00    +0.000 OA
ATOM      8  C   UNL     1      -9.580 -10.352  15.198  0.00  0.00    +0.000 C 
BRANCH   8   9
ATOM      9  O   UNL     1     -10.871 -10.738  15.426  0.00  0.00    +0.000 OA
BRANCH   9  10
ATOM     10  C   UNL     1     -11.681  -9.793  16.132  0.00  0.00    +0.000 C 
ATOM     11  H   UNL     1     -11.069  -9.275  16.879  0.00  0.00    +0.000 HD
ATOM     12  H   UNL     1     -12.090  -9.062  15.426  0.00  0.00    +0.000 HD
BRANCH  10  13
ATOM     13  C   UNL     1     -12.812 -10.528  16.819  0.00  0.00    +0.000 C 
ATOM     14  H   UNL     1     -13.127 -10.003  17.724  0.00  0.00    +0.000 HD
ATOM     15  H   UNL     1     -13.672 -10.624  16.149  0.00  0.00    +0.000 HD
ATOM     16  H   UNL     1     -12.504 -11.545  17.088  0.00  0.00    +0.000 HD
ENDBRANCH  10  13
ENDBRANCH   9  10
ENDBRANCH   8   9
ENDBRANCH   4   8
ENDBRANCH   1   4
BRANCH   1  18
ATOM     17  O   UNL     1      -7.945 -13.731  18.010  0.00  0.00    +0.000 OA
ATOM     18  C   UNL     1      -8.853 -12.936  17.811  0.00  0.00    +0.000 C 
BRANCH  18  19
ATOM     19  O   UNL     1      -9.555 -12.266  18.775  0.00  0.00    +0.000 OA
BRANCH  19  20
ATOM     20  C   UNL     1     -10.843 -12.806  19.086  0.00  0.00    +0.000 C 
ATOM     21  H   UNL     1     -11.621 -12.161  18.664  0.00  0.00    +0.000 HD
ATOM     22  H   UNL     1     -10.931 -13.811  18.656  0.00  0.00    +0.000 HD
BRANCH  20  23
ATOM     23  C   UNL     1     -10.998 -12.878  20.590  0.00  0.00    +0.000 C 
ATOM     24  H   UNL     1     -11.523 -11.998  20.971  0.00  0.00    +0.000 HD
ATOM     25  H   UNL     1     -11.556 -13.775  20.878  0.00  0.00    +0.000 HD
ATOM     26  H   UNL     1     -10.019 -12.943  21.075  0.00  0.00    +0.000 HD
ENDBRANCH  20  23
ENDBRANCH  19  20
ENDBRANCH  18  19
ENDBRANCH   1  18
TORSDOF 9
ENDMDL
MODEL 7
REMARK VINA RESULT:    -3.836     14.350     16.619
REMARK INTER + INTRA:          -6.060
REMARK INTER:                  -5.708
REMARK INTRA:                  -0.353
REMARK UNBOUND:                -0.430
REMARK  Name = 31249
REMARK  9 active torsions:
REMARK  status: ('A' for Active; 'I' for Inactive)
REMARK    1  A    between atoms: O_1  and  C_7
REMARK    2  A    between atoms: O_1  and  C_9
REMARK    3  A    between atoms: O_2  and  C_8
REMARK    4  A    between atoms: O_2  and  C_10
REMARK    5  A    between atoms: C_5  and  C_6
REMARK    6  A    between atoms: C_5  and  C_7
REMARK    7  A    between atoms: C_6  and  C_8
REMARK    8  A    between atoms: C_9  and  C_11
REMARK    9  A    between atoms: C_10  and  C_12
REMARK                            x       y       z     vdW  Elec       q    Type
REMARK                         _______ _______ _______ _____ _____    ______ ____
ROOT
ATOM      1  C   UNL     1      -1.287  10.084 -10.570  0.00  0.00    +0.000 C 
ATOM      2  H   UNL     1      -1.902  10.873 -11.019  0.00  0.00    +0.000 HD
ATOM      3  H   UNL     1      -0.546  10.554  -9.913  0.00  0.00    +0.000 HD
ENDROOT
BRANCH   1   4
ATOM      4  C   UNL     1      -0.572   9.302 -11.668  0.00  0.00    +0.000 C 
ATOM      5  H   UNL     1       0.511   9.439 -11.571  0.00  0.00    +0.000 HD
ATOM      6  H   UNL     1      -0.796   8.234 -11.566  0.00  0.00    +0.000 HD
BRANCH   4   8
ATOM      7  O   UNL     1      -2.095  10.121 -13.382  0.00  0.00    +0.000 OA
ATOM      8  C   UNL     1      -0.980   9.740 -13.059  0.00  0.00    +0.000 C 
BRANCH   8   9
ATOM      9  O   UNL     1       0.100   9.631 -13.889  0.00  0.00    +0.000 OA
BRANCH   9  10
ATOM     10  C   UNL     1      -0.103   8.835 -15.062  0.00  0.00    +0.000 C 
ATOM     11  H   UNL     1       0.003   7.775 -14.807  0.00  0.00    +0.000 HD
ATOM     12  H   UNL     1      -1.110   9.015 -15.455  0.00  0.00    +0.000 HD
BRANCH  10  13
ATOM     13  C   UNL     1       0.928   9.218 -16.102  0.00  0.00    +0.000 C 
ATOM     14  H   UNL     1       1.419   8.330 -16.509  0.00  0.00    +0.000 HD
ATOM     15  H   UNL     1       0.461   9.771 -16.923  0.00  0.00    +0.000 HD
ATOM     16  H   UNL     1       1.688   9.875 -15.667  0.00  0.00    +0.000 HD
ENDBRANCH  10  13
ENDBRANCH   9  10
ENDBRANCH   8   9
ENDBRANCH   4   8
ENDBRANCH   1   4
BRANCH   1  18
ATOM     17  O   UNL     1      -2.818   9.590  -8.742  0.00  0.00    +0.000 OA
ATOM     18  C   UNL     1      -2.185   9.212  -9.719  0.00  0.00    +0.000 C 
BRANCH  18  19
ATOM     19  O   UNL     1      -2.163   7.938 -10.215  0.00  0.00    +0.000 OA
BRANCH  19  20
ATOM     20  C   UNL     1      -3.195   7.072  -9.732  0.00  0.00    +0.000 C 
ATOM     21  H   UNL     1      -2.769   6.088  -9.507  0.00  0.00    +0.000 HD
ATOM     22  H   UNL     1      -3.631   7.496  -8.820  0.00  0.00    +0.000 HD
BRANCH  20  23
ATOM     23  C   UNL     1      -4.263   6.937 -10.796  0.00  0.00    +0.000 C 
ATOM     24  H   UNL     1      -3.855   7.149 -11.788  0.00  0.00    +0.000 HD
ATOM     25  H   UNL     1      -4.682   5.925 -10.795  0.00  0.00    +0.000 HD
ATOM     26  H   UNL     1      -5.091   7.625 -10.599  0.00  0.00    +0.000 HD
ENDBRANCH  20  23
ENDBRANCH  19  20
ENDBRANCH  18  19
ENDBRANCH   1  18
TORSDOF 9
ENDMDL
MODEL 8
REMARK VINA RESULT:    -3.794     18.061     19.144
REMARK INTER + INTRA:          -5.999
REMARK INTER:                  -5.793
REMARK INTRA:                  -0.206
REMARK UNBOUND:                -0.430
REMARK  Name = 31249
REMARK  9 active torsions:
REMARK  status: ('A' for Active; 'I' for Inactive)
REMARK    1  A    between atoms: O_1  and  C_7
REMARK    2  A    between atoms: O_1  and  C_9
REMARK    3  A    between atoms: O_2  and  C_8
REMARK    4  A    between atoms: O_2  and  C_10
REMARK    5  A    between atoms: C_5  and  C_6
REMARK    6  A    between atoms: C_5  and  C_7
REMARK    7  A    between atoms: C_6  and  C_8
REMARK    8  A    between atoms: C_9  and  C_11
REMARK    9  A    between atoms: C_10  and  C_12
REMARK                            x       y       z     vdW  Elec       q    Type
REMARK                         _______ _______ _______ _____ _____    ______ ____
ROOT
ATOM      1  C   UNL     1       2.257   0.060 -13.015  0.00  0.00    +0.000 C 
ATOM      2  H   UNL     1       2.234  -1.026 -13.172  0.00  0.00    +0.000 HD
ATOM      3  H   UNL     1       2.933   0.275 -12.179  0.00  0.00    +0.000 HD
ENDROOT
BRANCH   1   4
ATOM      4  C   UNL     1       0.855   0.559 -12.679  0.00  0.00    +0.000 C 
ATOM      5  H   UNL     1       0.903   1.246 -11.826  0.00  0.00    +0.000 HD
ATOM      6  H   UNL     1       0.441   1.103 -13.537  0.00  0.00    +0.000 HD
BRANCH   4   8
ATOM      7  O   UNL     1      -0.081  -1.685 -12.812  0.00  0.00    +0.000 OA
ATOM      8  C   UNL     1      -0.098  -0.563 -12.326  0.00  0.00    +0.000 C 
BRANCH   8   9
ATOM      9  O   UNL     1      -0.980  -0.113 -11.384  0.00  0.00    +0.000 OA
BRANCH   9  10
ATOM     10  C   UNL     1      -1.666  -1.130 -10.647  0.00  0.00    +0.000 C 
ATOM     11  H   UNL     1      -2.054  -1.884 -11.340  0.00  0.00    +0.000 HD
ATOM     12  H   UNL     1      -0.971  -1.604  -9.945  0.00  0.00    +0.000 HD
BRANCH  10  13
ATOM     13  C   UNL     1      -2.811  -0.499  -9.884  0.00  0.00    +0.000 C 
ATOM     14  H   UNL     1      -3.174   0.397 -10.396  0.00  0.00    +0.000 HD
ATOM     15  H   UNL     1      -3.640  -1.206  -9.779  0.00  0.00    +0.000 HD
ATOM     16  H   UNL     1      -2.496  -0.225  -8.872  0.00  0.00    +0.000 HD
ENDBRANCH  10  13
ENDBRANCH   9  10
ENDBRANCH   8   9
ENDBRANCH   4   8
ENDBRANCH   1   4
BRANCH   1  18
ATOM     17  O   UNL     1       2.195   1.389 -15.054  0.00  0.00    +0.000 OA
ATOM     18  C   UNL     1       2.827   0.706 -14.259  0.00  0.00    +0.000 C 
BRANCH  18  19
ATOM     19  O   UNL     1       4.154   0.393 -14.351  0.00  0.00    +0.000 OA
BRANCH  19  20
ATOM     20  C   UNL     1       4.616   0.045 -15.660  0.00  0.00    +0.000 C 
ATOM     21  H   UNL     1       3.758  -0.203 -16.295  0.00  0.00    +0.000 HD
ATOM     22  H   UNL     1       5.157   0.894 -16.094  0.00  0.00    +0.000 HD
BRANCH  20  23
ATOM     23  C   UNL     1       5.539  -1.150 -15.556  0.00  0.00    +0.000 C 
ATOM     24  H   UNL     1       5.165  -1.986 -16.154  0.00  0.00    +0.000 HD
ATOM     25  H   UNL     1       6.546  -0.891 -15.901  0.00  0.00    +0.000 HD
ATOM     26  H   UNL     1       5.633  -1.475 -14.515  0.00  0.00    +0.000 HD
ENDBRANCH  20  23
ENDBRANCH  19  20
ENDBRANCH  18  19
ENDBRANCH   1  18
TORSDOF 9
ENDMDL
MODEL 9
REMARK VINA RESULT:    -3.775     13.719     15.848
REMARK INTER + INTRA:          -5.970
REMARK INTER:                  -5.540
REMARK INTRA:                  -0.430
REMARK UNBOUND:                -0.430
REMARK  Name = 31249
REMARK  9 active torsions:
REMARK  status: ('A' for Active; 'I' for Inactive)
REMARK    1  A    between atoms: O_1  and  C_7
REMARK    2  A    between atoms: O_1  and  C_9
REMARK    3  A    between atoms: O_2  and  C_8
REMARK    4  A    between atoms: O_2  and  C_10
REMARK    5  A    between atoms: C_5  and  C_6
REMARK    6  A    between atoms: C_5  and  C_7
REMARK    7  A    between atoms: C_6  and  C_8
REMARK    8  A    between atoms: C_9  and  C_11
REMARK    9  A    between atoms: C_10  and  C_12
REMARK                            x       y       z     vdW  Elec       q    Type
REMARK                         _______ _______ _______ _____ _____    ______ ____
ROOT
ATOM      1  C   UNL     1      -8.331  10.663   9.552  0.00  0.00    +0.000 C 
ATOM      2  H   UNL     1      -9.385  10.411   9.721  0.00  0.00    +0.000 HD
ATOM      3  H   UNL     1      -8.101  11.581  10.105  0.00  0.00    +0.000 HD
ENDROOT
BRANCH   1   4
ATOM      4  C   UNL     1      -8.089  10.891   8.063  0.00  0.00    +0.000 C 
ATOM      5  H   UNL     1      -8.034  11.967   7.859  0.00  0.00    +0.000 HD
ATOM      6  H   UNL     1      -7.136  10.435   7.769  0.00  0.00    +0.000 HD
BRANCH   4   8
ATOM      7  O   UNL     1      -9.913   9.376   7.511  0.00  0.00    +0.000 OA
ATOM      8  C   UNL     1      -9.181  10.302   7.195  0.00  0.00    +0.000 C 
BRANCH   8   9
ATOM      9  O   UNL     1      -9.206  10.972   6.004  0.00  0.00    +0.000 OA
BRANCH   9  10
ATOM     10  C   UNL     1      -8.076  11.812   5.746  0.00  0.00    +0.000 C 
ATOM     11  H   UNL     1      -8.412  12.847   5.624  0.00  0.00    +0.000 HD
ATOM     12  H   UNL     1      -7.378  11.753   6.588  0.00  0.00    +0.000 HD
BRANCH  10  13
ATOM     13  C   UNL     1      -7.392  11.343   4.480  0.00  0.00    +0.000 C 
ATOM     14  H   UNL     1      -8.106  10.863   3.805  0.00  0.00    +0.000 HD
ATOM     15  H   UNL     1      -6.925  12.185   3.959  0.00  0.00    +0.000 HD
ATOM     16  H   UNL     1      -6.593  10.631   4.714  0.00  0.00    +0.000 HD
ENDBRANCH  10  13
ENDBRANCH   9  10
ENDBRANCH   8   9
ENDBRANCH   4   8
ENDBRANCH   1   4
BRANCH   1  18
ATOM     17  O   UNL     1      -6.260   9.549  10.182  0.00  0.00    +0.000 OA
ATOM     18  C   UNL     1      -7.481   9.547  10.120  0.00  0.00    +0.000 C 
BRANCH  18  19
ATOM     19  O   UNL     1      -8.302   8.538  10.541  0.00  0.00    +0.000 OA
BRANCH  19  20
ATOM     20  C   UNL     1      -9.557   8.953  11.089  0.00  0.00    +0.000 C 
ATOM     21  H   UNL     1      -9.383   9.694  11.877  0.00  0.00    +0.000 HD
ATOM     22  H   UNL     1     -10.171   9.399  10.299  0.00  0.00    +0.000 HD
BRANCH  20  23
ATOM     23  C   UNL     1     -10.265   7.747  11.669  0.00  0.00    +0.000 C 
ATOM     24  H   UNL     1     -11.305   7.706  11.335  0.00  0.00    +0.000 HD
ATOM     25  H   UNL     1      -9.760   6.822  11.368  0.00  0.00    +0.000 HD
ATOM     26  H   UNL     1     -10.246   7.778  12.762  0.00  0.00    +0.000 HD
ENDBRANCH  20  23
ENDBRANCH  19  20
ENDBRANCH  18  19
ENDBRANCH   1  18
TORSDOF 9
ENDMDL
MODEL 10
REMARK VINA RESULT:    -3.750     27.707     29.389
REMARK INTER + INTRA:          -5.934
REMARK INTER:                  -5.562
REMARK INTRA:                  -0.372
REMARK UNBOUND:                -0.430
REMARK  Name = 31249
REMARK  9 active torsions:
REMARK  status: ('A' for Active; 'I' for Inactive)
REMARK    1  A    between atoms: O_1  and  C_7
REMARK    2  A    between atoms: O_1  and  C_9
REMARK    3  A    between atoms: O_2  and  C_8
REMARK    4  A    between atoms: O_2  and  C_10
REMARK    5  A    between atoms: C_5  and  C_6
REMARK    6  A    between atoms: C_5  and  C_7
REMARK    7  A    between atoms: C_6  and  C_8
REMARK    8  A    between atoms: C_9  and  C_11
REMARK    9  A    between atoms: C_10  and  C_12
REMARK                            x       y       z     vdW  Elec       q    Type
REMARK                         _______ _______ _______ _____ _____    ______ ____
ROOT
ATOM      1  C   UNL     1     -13.633  -5.950  17.487  0.00  0.00    +0.000 C 
ATOM      2  H   UNL     1     -12.866  -6.732  17.542  0.00  0.00    +0.000 HD
ATOM      3  H   UNL     1     -14.610  -6.408  17.682  0.00  0.00    +0.000 HD
ENDROOT
BRANCH   1   4
ATOM      4  C   UNL     1     -13.631  -5.325  16.095  0.00  0.00    +0.000 C 
ATOM      5  H   UNL     1     -13.133  -4.348  16.131  0.00  0.00    +0.000 HD
ATOM      6  H   UNL     1     -13.078  -5.969  15.402  0.00  0.00    +0.000 HD
BRANCH   4   8
ATOM      7  O   UNL     1     -15.466  -4.069  15.103  0.00  0.00    +0.000 OA
ATOM      8  C   UNL     1     -15.026  -5.121  15.542  0.00  0.00    +0.000 C 
BRANCH   8   9
ATOM      9  O   UNL     1     -15.709  -6.302  15.625  0.00  0.00    +0.000 OA
BRANCH   9  10
ATOM     10  C   UNL     1     -16.607  -6.570  14.543  0.00  0.00    +0.000 C 
ATOM     11  H   UNL     1     -17.517  -7.040  14.932  0.00  0.00    +0.000 HD
ATOM     12  H   UNL     1     -16.868  -5.631  14.044  0.00  0.00    +0.000 HD
BRANCH  10  13
ATOM     13  C   UNL     1     -15.931  -7.501  13.560  0.00  0.00    +0.000 C 
ATOM     14  H   UNL     1     -15.890  -7.053  12.563  0.00  0.00    +0.000 HD
ATOM     15  H   UNL     1     -14.911  -7.730  13.885  0.00  0.00    +0.000 HD
ATOM     16  H   UNL     1     -16.467  -8.454  13.499  0.00  0.00    +0.000 HD
ENDBRANCH  10  13
ENDBRANCH   9  10
ENDBRANCH   8   9
ENDBRANCH   4   8
ENDBRANCH   1   4
BRANCH   1  18
ATOM     17  O   UNL     1     -12.485  -4.087  18.554  0.00  0.00    +0.000 OA
ATOM     18  C   UNL     1     -13.359  -4.942  18.583  0.00  0.00    +0.000 C 
BRANCH  18  19
ATOM     19  O   UNL     1     -14.241  -5.152  19.606  0.00  0.00    +0.000 OA
BRANCH  19  20
ATOM     20  C   UNL     1     -14.222  -6.464  20.176  0.00  0.00    +0.000 C 
ATOM     21  H   UNL     1     -15.249  -6.830  20.286  0.00  0.00    +0.000 HD
ATOM     22  H   UNL     1     -13.663  -7.140  19.518  0.00  0.00    +0.000 HD
BRANCH  20  23
ATOM     23  C   UNL     1     -13.552  -6.403  21.533  0.00  0.00    +0.000 C 
ATOM     24  H   UNL     1     -14.296  -6.353  22.333  0.00  0.00    +0.000 HD
ATOM     25  H   UNL     1     -12.920  -7.284  21.691  0.00  0.00    +0.000 HD
ATOM     26  H   UNL     1     -12.900  -5.527  21.601  0.00  0.00    +0.000 HD
ENDBRANCH  20  23
ENDBRANCH  19  20
ENDBRANCH  18  19
ENDBRANCH   1  18
TORSDOF 9
ENDMDL
