MODEL 1
REMARK VINA RESULT:    -2.103      0.000      0.000
REMARK INTER + INTRA:          -2.349
REMARK INTER:                  -2.349
REMARK INTRA:                   0.000
REMARK UNBOUND:                 0.000
REMARK  Name = 12232
REMARK  3 active torsions:
REMARK  status: ('A' for Active; 'I' for Inactive)
REMARK    1  A    between atoms: S_1  and  S_2
REMARK    2  A    between atoms: S_1  and  C_3
REMARK    3  A    between atoms: S_2  and  C_4
REMARK                            x       y       z     vdW  Elec       q    Type
REMARK                         _______ _______ _______ _____ _____    ______ ____
ROOT
ATOM      1  S   UNL     1      -2.401   9.318  -9.389  0.00  0.00    +0.000 S 
ENDROOT
BRANCH   1   2
ATOM      2  C   UNL     1      -1.250   9.995 -10.608  0.00  0.00    +0.000 C 
ATOM      3  H   UNL     1      -1.643   9.871 -11.621  0.00  0.00    +0.000 HD
ATOM      4  H   UNL     1      -0.301   9.455 -10.541  0.00  0.00    +0.000 HD
ATOM      5  H   UNL     1      -1.057  11.053 -10.411  0.00  0.00    +0.000 HD
ENDBRANCH   1   2
BRANCH   1   6
ATOM      6  S   UNL     1      -2.813   7.467 -10.184  0.00  0.00    +0.000 S 
BRANCH   6   7
ATOM      7  C   UNL     1      -3.832   6.727  -8.886  0.00  0.00    +0.000 C 
ATOM      8  H   UNL     1      -4.768   7.279  -8.766  0.00  0.00    +0.000 HD
ATOM      9  H   UNL     1      -3.287   6.768  -7.938  0.00  0.00    +0.000 HD
ATOM     10  H   UNL     1      -4.044   5.679  -9.113  0.00  0.00    +0.000 HD
ENDBRANCH   6   7
ENDBRANCH   1   6
TORSDOF 3
ENDMDL
MODEL 2
REMARK VINA RESULT:    -2.004     12.246     12.522
REMARK INTER + INTRA:          -2.238
REMARK INTER:                  -2.238
REMARK INTRA:                   0.000
REMARK UNBOUND:                 0.000
REMARK  Name = 12232
REMARK  3 active torsions:
REMARK  status: ('A' for Active; 'I' for Inactive)
REMARK    1  A    between atoms: S_1  and  S_2
REMARK    2  A    between atoms: S_1  and  C_3
REMARK    3  A    between atoms: S_2  and  C_4
REMARK                            x       y       z     vdW  Elec       q    Type
REMARK                         _______ _______ _______ _____ _____    ______ ____
ROOT
ATOM      1  S   UNL     1       3.652  11.395   0.511  0.00  0.00    +0.000 S 
ENDROOT
BRANCH   1   2
ATOM      2  C   UNL     1       3.503  11.192  -1.280  0.00  0.00    +0.000 C 
ATOM      3  H   UNL     1       3.236  12.140  -1.755  0.00  0.00    +0.000 HD
ATOM      4  H   UNL     1       2.712  10.468  -1.492  0.00  0.00    +0.000 HD
ATOM      5  H   UNL     1       4.437  10.814  -1.704  0.00  0.00    +0.000 HD
ENDBRANCH   1   2
BRANCH   1   6
ATOM      6  S   UNL     1       4.354   9.549   1.084  0.00  0.00    +0.000 S 
BRANCH   6   7
ATOM      7  C   UNL     1       3.525   9.318   2.675  0.00  0.00    +0.000 C 
ATOM      8  H   UNL     1       3.889  10.042   3.409  0.00  0.00    +0.000 HD
ATOM      9  H   UNL     1       3.744   8.313   3.048  0.00  0.00    +0.000 HD
ATOM     10  H   UNL     1       2.442   9.414   2.563  0.00  0.00    +0.000 HD
ENDBRANCH   6   7
ENDBRANCH   1   6
TORSDOF 3
ENDMDL
MODEL 3
REMARK VINA RESULT:    -1.974      2.267      2.627
REMARK INTER + INTRA:          -2.205
REMARK INTER:                  -2.205
REMARK INTRA:                   0.000
REMARK UNBOUND:                 0.000
REMARK  Name = 12232
REMARK  3 active torsions:
REMARK  status: ('A' for Active; 'I' for Inactive)
REMARK    1  A    between atoms: S_1  and  S_2
REMARK    2  A    between atoms: S_1  and  C_3
REMARK    3  A    between atoms: S_2  and  C_4
REMARK                            x       y       z     vdW  Elec       q    Type
REMARK                         _______ _______ _______ _____ _____    ______ ____
ROOT
ATOM      1  S   UNL     1      -3.430   6.982  -9.111  0.00  0.00    +0.000 S 
ENDROOT
BRANCH   1   2
ATOM      2  C   UNL     1      -2.834   8.661  -8.799  0.00  0.00    +0.000 C 
ATOM      3  H   UNL     1      -1.918   8.856  -9.364  0.00  0.00    +0.000 HD
ATOM      4  H   UNL     1      -2.608   8.767  -7.734  0.00  0.00    +0.000 HD
ATOM      5  H   UNL     1      -3.598   9.397  -9.063  0.00  0.00    +0.000 HD
ENDBRANCH   1   2
BRANCH   1   6
ATOM      6  S   UNL     1      -3.451   6.920 -11.166  0.00  0.00    +0.000 S 
BRANCH   6   7
ATOM      7  C   UNL     1      -1.685   6.976 -11.554  0.00  0.00    +0.000 C 
ATOM      8  H   UNL     1      -1.170   6.105 -11.139  0.00  0.00    +0.000 HD
ATOM      9  H   UNL     1      -1.250   7.875 -11.109  0.00  0.00    +0.000 HD
ATOM     10  H   UNL     1      -1.529   7.019 -12.636  0.00  0.00    +0.000 HD
ENDBRANCH   6   7
ENDBRANCH   1   6
TORSDOF 3
ENDMDL
MODEL 4
REMARK VINA RESULT:    -1.965      1.868      2.873
REMARK INTER + INTRA:          -2.195
REMARK INTER:                  -2.195
REMARK INTRA:                   0.000
REMARK UNBOUND:                 0.000
REMARK  Name = 12232
REMARK  3 active torsions:
REMARK  status: ('A' for Active; 'I' for Inactive)
REMARK    1  A    between atoms: S_1  and  S_2
REMARK    2  A    between atoms: S_1  and  C_3
REMARK    3  A    between atoms: S_2  and  C_4
REMARK                            x       y       z     vdW  Elec       q    Type
REMARK                         _______ _______ _______ _____ _____    ______ ____
ROOT
ATOM      1  S   UNL     1      -1.744   7.940 -11.561  0.00  0.00    +0.000 S 
ENDROOT
BRANCH   1   2
ATOM      2  C   UNL     1      -2.707   6.861 -10.475  0.00  0.00    +0.000 C 
ATOM      3  H   UNL     1      -2.670   7.221  -9.442  0.00  0.00    +0.000 HD
ATOM      4  H   UNL     1      -2.281   5.855 -10.502  0.00  0.00    +0.000 HD
ATOM      5  H   UNL     1      -3.746   6.803 -10.812  0.00  0.00    +0.000 HD
ENDBRANCH   1   2
BRANCH   1   6
ATOM      6  S   UNL     1      -1.707   9.692 -10.487  0.00  0.00    +0.000 S 
BRANCH   6   7
ATOM      7  C   UNL     1      -2.609   9.226  -8.990  0.00  0.00    +0.000 C 
ATOM      8  H   UNL     1      -2.939  10.114  -8.445  0.00  0.00    +0.000 HD
ATOM      9  H   UNL     1      -1.946   8.651  -8.338  0.00  0.00    +0.000 HD
ATOM     10  H   UNL     1      -3.471   8.601  -9.239  0.00  0.00    +0.000 HD
ENDBRANCH   6   7
ENDBRANCH   1   6
TORSDOF 3
ENDMDL
MODEL 5
REMARK VINA RESULT:    -1.919     11.863     12.245
REMARK INTER + INTRA:          -2.143
REMARK INTER:                  -2.143
REMARK INTRA:                   0.000
REMARK UNBOUND:                 0.000
REMARK  Name = 12232
REMARK  3 active torsions:
REMARK  status: ('A' for Active; 'I' for Inactive)
REMARK    1  A    between atoms: S_1  and  S_2
REMARK    2  A    between atoms: S_1  and  C_3
REMARK    3  A    between atoms: S_2  and  C_4
REMARK                            x       y       z     vdW  Elec       q    Type
REMARK                         _______ _______ _______ _____ _____    ______ ____
ROOT
ATOM      1  S   UNL     1       3.583  11.417   0.499  0.00  0.00    +0.000 S 
ENDROOT
BRANCH   1   2
ATOM      2  C   UNL     1       3.476  11.145  -1.286  0.00  0.00    +0.000 C 
ATOM      3  H   UNL     1       2.611  11.667  -1.705  0.00  0.00    +0.000 HD
ATOM      4  H   UNL     1       3.355  10.075  -1.477  0.00  0.00    +0.000 HD
ATOM      5  H   UNL     1       4.390  11.481  -1.783  0.00  0.00    +0.000 HD
ENDBRANCH   1   2
BRANCH   1   6
ATOM      6  S   UNL     1       3.839   9.502   1.200  0.00  0.00    +0.000 S 
BRANCH   6   7
ATOM      7  C   UNL     1       5.320   8.976   0.304  0.00  0.00    +0.000 C 
ATOM      8  H   UNL     1       6.088   9.753   0.338  0.00  0.00    +0.000 HD
ATOM      9  H   UNL     1       5.059   8.798  -0.743  0.00  0.00    +0.000 HD
ATOM     10  H   UNL     1       5.713   8.045   0.723  0.00  0.00    +0.000 HD
ENDBRANCH   6   7
ENDBRANCH   1   6
TORSDOF 3
ENDMDL
MODEL 6
REMARK VINA RESULT:    -1.875     11.931     12.468
REMARK INTER + INTRA:          -2.094
REMARK INTER:                  -2.094
REMARK INTRA:                   0.000
REMARK UNBOUND:                 0.000
REMARK  Name = 12232
REMARK  3 active torsions:
REMARK  status: ('A' for Active; 'I' for Inactive)
REMARK    1  A    between atoms: S_1  and  S_2
REMARK    2  A    between atoms: S_1  and  C_3
REMARK    3  A    between atoms: S_2  and  C_4
REMARK                            x       y       z     vdW  Elec       q    Type
REMARK                         _______ _______ _______ _____ _____    ______ ____
ROOT
ATOM      1  S   UNL     1       3.886   9.264   0.813  0.00  0.00    +0.000 S 
ENDROOT
BRANCH   1   2
ATOM      2  C   UNL     1       5.683   9.100   0.938  0.00  0.00    +0.000 C 
ATOM      3  H   UNL     1       6.063   8.416   0.174  0.00  0.00    +0.000 HD
ATOM      4  H   UNL     1       5.936   8.691   1.920  0.00  0.00    +0.000 HD
ATOM      5  H   UNL     1       6.167  10.075   0.838  0.00  0.00    +0.000 HD
ENDBRANCH   1   2
BRANCH   1   6
ATOM      6  S   UNL     1       3.677  11.262   0.378  0.00  0.00    +0.000 S 
BRANCH   6   7
ATOM      7  C   UNL     1       3.357  11.221  -1.401  0.00  0.00    +0.000 C 
ATOM      8  H   UNL     1       3.870  12.044  -1.906  0.00  0.00    +0.000 HD
ATOM      9  H   UNL     1       2.282  11.331  -1.573  0.00  0.00    +0.000 HD
ATOM     10  H   UNL     1       3.676  10.266  -1.828  0.00  0.00    +0.000 HD
ENDBRANCH   6   7
ENDBRANCH   1   6
TORSDOF 3
ENDMDL
MODEL 7
REMARK VINA RESULT:    -1.833     13.015     13.420
REMARK INTER + INTRA:          -2.047
REMARK INTER:                  -2.047
REMARK INTRA:                   0.000
REMARK UNBOUND:                 0.000
REMARK  Name = 12232
REMARK  3 active torsions:
REMARK  status: ('A' for Active; 'I' for Inactive)
REMARK    1  A    between atoms: S_1  and  S_2
REMARK    2  A    between atoms: S_1  and  C_3
REMARK    3  A    between atoms: S_2  and  C_4
REMARK                            x       y       z     vdW  Elec       q    Type
REMARK                         _______ _______ _______ _____ _____    ______ ____
ROOT
ATOM      1  S   UNL     1       4.270   9.390   0.779  0.00  0.00    +0.000 S 
ENDROOT
BRANCH   1   2
ATOM      2  C   UNL     1       3.612   9.380   2.463  0.00  0.00    +0.000 C 
ATOM      3  H   UNL     1       3.855  10.314   2.979  0.00  0.00    +0.000 HD
ATOM      4  H   UNL     1       4.066   8.554   3.019  0.00  0.00    +0.000 HD
ATOM      5  H   UNL     1       2.529   9.232   2.453  0.00  0.00    +0.000 HD
ENDBRANCH   1   2
BRANCH   1   6
ATOM      6  S   UNL     1       4.294  11.400   0.350  0.00  0.00    +0.000 S 
BRANCH   6   7
ATOM      7  C   UNL     1       6.043  11.679  -0.017  0.00  0.00    +0.000 C 
ATOM      8  H   UNL     1       6.157  12.256  -0.938  0.00  0.00    +0.000 HD
ATOM      9  H   UNL     1       6.536  10.713  -0.155  0.00  0.00    +0.000 HD
ATOM     10  H   UNL     1       6.532  12.199   0.811  0.00  0.00    +0.000 HD
ENDBRANCH   6   7
ENDBRANCH   1   6
TORSDOF 3
ENDMDL
MODEL 8
REMARK VINA RESULT:    -1.831     32.595     33.650
REMARK INTER + INTRA:          -2.045
REMARK INTER:                  -2.045
REMARK INTRA:                   0.000
REMARK UNBOUND:                 0.000
REMARK  Name = 12232
REMARK  3 active torsions:
REMARK  status: ('A' for Active; 'I' for Inactive)
REMARK    1  A    between atoms: S_1  and  S_2
REMARK    2  A    between atoms: S_1  and  C_3
REMARK    3  A    between atoms: S_2  and  C_4
REMARK                            x       y       z     vdW  Elec       q    Type
REMARK                         _______ _______ _______ _____ _____    ______ ____
ROOT
ATOM      1  S   UNL     1      -9.443 -10.901  15.575  0.00  0.00    +0.000 S 
ENDROOT
BRANCH   1   2
ATOM      2  C   UNL     1      -8.043 -11.598  14.667  0.00  0.00    +0.000 C 
ATOM      3  H   UNL     1      -8.268 -12.614  14.330  0.00  0.00    +0.000 HD
ATOM      4  H   UNL     1      -7.174 -11.642  15.330  0.00  0.00    +0.000 HD
ATOM      5  H   UNL     1      -7.788 -10.970  13.809  0.00  0.00    +0.000 HD
ENDBRANCH   1   2
BRANCH   1   6
ATOM      6  S   UNL     1     -10.304 -12.586  16.377  0.00  0.00    +0.000 S 
BRANCH   6   7
ATOM      7  C   UNL     1      -9.800 -12.468  18.110  0.00  0.00    +0.000 C 
ATOM      8  H   UNL     1      -8.978 -11.757  18.226  0.00  0.00    +0.000 HD
ATOM      9  H   UNL     1      -9.454 -13.449  18.449  0.00  0.00    +0.000 HD
ATOM     10  H   UNL     1     -10.644 -12.167  18.737  0.00  0.00    +0.000 HD
ENDBRANCH   6   7
ENDBRANCH   1   6
TORSDOF 3
ENDMDL
MODEL 9
REMARK VINA RESULT:    -1.768     12.463     12.830
REMARK INTER + INTRA:          -1.975
REMARK INTER:                  -1.975
REMARK INTRA:                   0.000
REMARK UNBOUND:                 0.000
REMARK  Name = 12232
REMARK  3 active torsions:
REMARK  status: ('A' for Active; 'I' for Inactive)
REMARK    1  A    between atoms: S_1  and  S_2
REMARK    2  A    between atoms: S_1  and  C_3
REMARK    3  A    between atoms: S_2  and  C_4
REMARK                            x       y       z     vdW  Elec       q    Type
REMARK                         _______ _______ _______ _____ _____    ______ ____
ROOT
ATOM      1  S   UNL     1       4.046   9.921   0.646  0.00  0.00    +0.000 S 
ENDROOT
BRANCH   1   2
ATOM      2  C   UNL     1       3.637  11.642   0.270  0.00  0.00    +0.000 C 
ATOM      3  H   UNL     1       4.536  12.265   0.287  0.00  0.00    +0.000 HD
ATOM      4  H   UNL     1       2.945  12.019   1.028  0.00  0.00    +0.000 HD
ATOM      5  H   UNL     1       3.150  11.719  -0.706  0.00  0.00    +0.000 HD
ENDBRANCH   1   2
BRANCH   1   6
ATOM      6  S   UNL     1       6.066   9.879   0.270  0.00  0.00    +0.000 S 
BRANCH   6   7
ATOM      7  C   UNL     1       6.189  10.916  -1.206  0.00  0.00    +0.000 C 
ATOM      8  H   UNL     1       6.506  11.929  -0.942  0.00  0.00    +0.000 HD
ATOM      9  H   UNL     1       5.206  10.978  -1.681  0.00  0.00    +0.000 HD
ATOM     10  H   UNL     1       6.890  10.483  -1.925  0.00  0.00    +0.000 HD
ENDBRANCH   6   7
ENDBRANCH   1   6
TORSDOF 3
ENDMDL
MODEL 10
REMARK VINA RESULT:    -1.758     32.307     33.470
REMARK INTER + INTRA:          -1.963
REMARK INTER:                  -1.963
REMARK INTRA:                   0.000
REMARK UNBOUND:                 0.000
REMARK  Name = 12232
REMARK  3 active torsions:
REMARK  status: ('A' for Active; 'I' for Inactive)
REMARK    1  A    between atoms: S_1  and  S_2
REMARK    2  A    between atoms: S_1  and  C_3
REMARK    3  A    between atoms: S_2  and  C_4
REMARK                            x       y       z     vdW  Elec       q    Type
REMARK                         _______ _______ _______ _____ _____    ______ ____
ROOT
ATOM      1  S   UNL     1     -10.654 -11.874  16.379  0.00  0.00    +0.000 S 
ENDROOT
BRANCH   1   2
ATOM      2  C   UNL     1      -9.493 -12.389  17.667  0.00  0.00    +0.000 C 
ATOM      3  H   UNL     1      -9.373 -13.477  17.667  0.00  0.00    +0.000 HD
ATOM      4  H   UNL     1      -9.886 -12.089  18.642  0.00  0.00    +0.000 HD
ATOM      5  H   UNL     1      -8.522 -11.908  17.526  0.00  0.00    +0.000 HD
ENDBRANCH   1   2
BRANCH   1   6
ATOM      6  S   UNL     1      -9.518 -10.544  15.299  0.00  0.00    +0.000 S 
BRANCH   6   7
ATOM      7  C   UNL     1      -8.153 -11.592  14.743  0.00  0.00    +0.000 C 
ATOM      8  H   UNL     1      -7.288 -10.985  14.462  0.00  0.00    +0.000 HD
ATOM      9  H   UNL     1      -8.473 -12.158  13.864  0.00  0.00    +0.000 HD
ATOM     10  H   UNL     1      -7.869 -12.303  15.524  0.00  0.00    +0.000 HD
ENDBRANCH   6   7
ENDBRANCH   1   6
TORSDOF 3
ENDMDL
