MODEL 1
REMARK VINA RESULT:    -5.307      0.000      0.000
REMARK INTER + INTRA:          -9.784
REMARK INTER:                  -8.486
REMARK INTRA:                  -1.298
REMARK UNBOUND:                -1.064
REMARK  Name = 3893
REMARK  12 active torsions:
REMARK  status: ('A' for Active; 'I' for Inactive)
REMARK    1  A    between atoms: O_1  and  C_14
REMARK    2  A    between atoms: C_3  and  C_4
REMARK    3  A    between atoms: C_3  and  C_5
REMARK    4  A    between atoms: C_4  and  C_6
REMARK    5  A    between atoms: C_5  and  C_7
REMARK    6  A    between atoms: C_6  and  C_8
REMARK    7  A    between atoms: C_7  and  C_9
REMARK    8  A    between atoms: C_8  and  C_10
REMARK    9  A    between atoms: C_9  and  C_11
REMARK   10  A    between atoms: C_10  and  C_12
REMARK   11  A    between atoms: C_11  and  C_13
REMARK   12  A    between atoms: C_12  and  C_14
REMARK                            x       y       z     vdW  Elec       q    Type
REMARK                         _______ _______ _______ _____ _____    ______ ____
ROOT
ATOM      1  C   UNL     1       5.104   7.645   3.696  0.00  0.00    +0.000 C 
ATOM      2  H   UNL     1       5.536   7.668   4.704  0.00  0.00    +0.000 HD
ATOM      3  H   UNL     1       4.449   6.767   3.643  0.00  0.00    +0.000 HD
ENDROOT
BRANCH   1   4
ATOM      4  C   UNL     1       6.224   7.506   2.662  0.00  0.00    +0.000 C 
ATOM      5  H   UNL     1       6.692   6.519   2.764  0.00  0.00    +0.000 HD
ATOM      6  H   UNL     1       5.792   7.549   1.655  0.00  0.00    +0.000 HD
BRANCH   4   7
ATOM      7  C   UNL     1       7.306   8.584   2.788  0.00  0.00    +0.000 C 
ATOM      8  H   UNL     1       8.223   8.125   3.178  0.00  0.00    +0.000 HD
ATOM      9  H   UNL     1       6.984   9.327   3.526  0.00  0.00    +0.000 HD
BRANCH   7  10
ATOM     10  C   UNL     1       7.617   9.289   1.465  0.00  0.00    +0.000 C 
ATOM     11  H   UNL     1       8.698   9.452   1.379  0.00  0.00    +0.000 HD
ATOM     12  H   UNL     1       7.137  10.274   1.454  0.00  0.00    +0.000 HD
BRANCH  10  13
ATOM     13  C   UNL     1       7.126   8.463   0.271  0.00  0.00    +0.000 C 
ATOM     14  H   UNL     1       6.054   8.261   0.387  0.00  0.00    +0.000 HD
ATOM     15  H   UNL     1       7.628   7.488   0.267  0.00  0.00    +0.000 HD
BRANCH  13  16
ATOM     16  C   UNL     1       7.368   9.165  -1.063  0.00  0.00    +0.000 C 
ATOM     17  H   UNL     1       6.860   8.619  -1.867  0.00  0.00    +0.000 HD
ATOM     18  H   UNL     1       6.969  10.184  -1.020  0.00  0.00    +0.000 HD
BRANCH  16  20
ATOM     19  O   UNL     1       9.458  10.296  -1.494  0.00  0.00    +0.000 OA
ATOM     20  C   UNL     1       8.832   9.247  -1.415  0.00  0.00    +0.000 C 
BRANCH  20  21
ATOM     21  O   UNL     1       9.386   8.028  -1.632  0.00  0.00    +0.000 OA
ATOM     22  H   UNL     1       8.988   7.338  -1.059  0.00  0.00    +0.000 HD
ENDBRANCH  20  21
ENDBRANCH  16  20
ENDBRANCH  13  16
ENDBRANCH  10  13
ENDBRANCH   7  10
ENDBRANCH   4   7
ENDBRANCH   1   4
BRANCH   1  23
ATOM     23  C   UNL     1       4.283   8.915   3.458  0.00  0.00    +0.000 C 
ATOM     24  H   UNL     1       4.945   9.789   3.468  0.00  0.00    +0.000 HD
ATOM     25  H   UNL     1       3.561   9.047   4.272  0.00  0.00    +0.000 HD
BRANCH  23  26
ATOM     26  C   UNL     1       3.543   8.854   2.120  0.00  0.00    +0.000 C 
ATOM     27  H   UNL     1       3.881   7.977   1.555  0.00  0.00    +0.000 HD
ATOM     28  H   UNL     1       2.472   8.716   2.308  0.00  0.00    +0.000 HD
BRANCH  26  29
ATOM     29  C   UNL     1       3.740  10.104   1.257  0.00  0.00    +0.000 C 
ATOM     30  H   UNL     1       2.946  10.823   1.494  0.00  0.00    +0.000 HD
ATOM     31  H   UNL     1       4.685  10.581   1.546  0.00  0.00    +0.000 HD
BRANCH  29  32
ATOM     32  C   UNL     1       3.749   9.872  -0.256  0.00  0.00    +0.000 C 
ATOM     33  H   UNL     1       4.678   9.362  -0.537  0.00  0.00    +0.000 HD
ATOM     34  H   UNL     1       2.925   9.200  -0.524  0.00  0.00    +0.000 HD
BRANCH  32  35
ATOM     35  C   UNL     1       3.627  11.152  -1.068  0.00  0.00    +0.000 C 
ATOM     36  H   UNL     1       4.267  11.938  -0.656  0.00  0.00    +0.000 HD
ATOM     37  H   UNL     1       3.918  10.983  -2.110  0.00  0.00    +0.000 HD
ATOM     38  H   UNL     1       2.594  11.513  -1.058  0.00  0.00    +0.000 HD
ENDBRANCH  32  35
ENDBRANCH  29  32
ENDBRANCH  26  29
ENDBRANCH  23  26
ENDBRANCH   1  23
TORSDOF 12
ENDMDL
MODEL 2
REMARK VINA RESULT:    -5.130      2.922      5.051
REMARK INTER + INTRA:          -9.492
REMARK INTER:                  -8.446
REMARK INTRA:                  -1.046
REMARK UNBOUND:                -1.064
REMARK  Name = 3893
REMARK  12 active torsions:
REMARK  status: ('A' for Active; 'I' for Inactive)
REMARK    1  A    between atoms: O_1  and  C_14
REMARK    2  A    between atoms: C_3  and  C_4
REMARK    3  A    between atoms: C_3  and  C_5
REMARK    4  A    between atoms: C_4  and  C_6
REMARK    5  A    between atoms: C_5  and  C_7
REMARK    6  A    between atoms: C_6  and  C_8
REMARK    7  A    between atoms: C_7  and  C_9
REMARK    8  A    between atoms: C_8  and  C_10
REMARK    9  A    between atoms: C_9  and  C_11
REMARK   10  A    between atoms: C_10  and  C_12
REMARK   11  A    between atoms: C_11  and  C_13
REMARK   12  A    between atoms: C_12  and  C_14
REMARK                            x       y       z     vdW  Elec       q    Type
REMARK                         _______ _______ _______ _____ _____    ______ ____
ROOT
ATOM      1  C   UNL     1       7.358   8.801  -0.108  0.00  0.00    +0.000 C 
ATOM      2  H   UNL     1       8.349   8.406  -0.363  0.00  0.00    +0.000 HD
ATOM      3  H   UNL     1       6.816   8.951  -1.050  0.00  0.00    +0.000 HD
ENDROOT
BRANCH   1   4
ATOM      4  C   UNL     1       7.512  10.145   0.609  0.00  0.00    +0.000 C 
ATOM      5  H   UNL     1       7.221  10.029   1.662  0.00  0.00    +0.000 HD
ATOM      6  H   UNL     1       8.568  10.437   0.604  0.00  0.00    +0.000 HD
BRANCH   4   7
ATOM      7  C   UNL     1       6.678  11.268  -0.016  0.00  0.00    +0.000 C 
ATOM      8  H   UNL     1       7.339  12.109  -0.260  0.00  0.00    +0.000 HD
ATOM      9  H   UNL     1       5.959  11.634   0.727  0.00  0.00    +0.000 HD
BRANCH   7  10
ATOM     10  C   UNL     1       5.924  10.835  -1.276  0.00  0.00    +0.000 C 
ATOM     11  H   UNL     1       6.176   9.796  -1.518  0.00  0.00    +0.000 HD
ATOM     12  H   UNL     1       6.243  11.453  -2.123  0.00  0.00    +0.000 HD
BRANCH  10  13
ATOM     13  C   UNL     1       4.409  10.964  -1.083  0.00  0.00    +0.000 C 
ATOM     14  H   UNL     1       3.916  10.921  -2.063  0.00  0.00    +0.000 HD
ATOM     15  H   UNL     1       4.175  11.948  -0.659  0.00  0.00    +0.000 HD
BRANCH  13  16
ATOM     16  C   UNL     1       3.840   9.872  -0.181  0.00  0.00    +0.000 C 
ATOM     17  H   UNL     1       2.974   9.406  -0.664  0.00  0.00    +0.000 HD
ATOM     18  H   UNL     1       4.603   9.105  -0.006  0.00  0.00    +0.000 HD
BRANCH  16  20
ATOM     19  O   UNL     1       3.198   9.702   2.141  0.00  0.00    +0.000 OA
ATOM     20  C   UNL     1       3.392  10.404   1.157  0.00  0.00    +0.000 C 
BRANCH  20  21
ATOM     21  O   UNL     1       3.231  11.750   1.156  0.00  0.00    +0.000 OA
ATOM     22  H   UNL     1       2.976  12.089   2.041  0.00  0.00    +0.000 HD
ENDBRANCH  20  21
ENDBRANCH  16  20
ENDBRANCH  13  16
ENDBRANCH  10  13
ENDBRANCH   7  10
ENDBRANCH   4   7
ENDBRANCH   1   4
BRANCH   1  23
ATOM     23  C   UNL     1       6.608   7.790   0.763  0.00  0.00    +0.000 C 
ATOM     24  H   UNL     1       7.098   6.811   0.695  0.00  0.00    +0.000 HD
ATOM     25  H   UNL     1       5.585   7.666   0.388  0.00  0.00    +0.000 HD
BRANCH  23  26
ATOM     26  C   UNL     1       6.569   8.239   2.224  0.00  0.00    +0.000 C 
ATOM     27  H   UNL     1       7.541   8.660   2.504  0.00  0.00    +0.000 HD
ATOM     28  H   UNL     1       5.832   9.043   2.334  0.00  0.00    +0.000 HD
BRANCH  26  29
ATOM     29  C   UNL     1       6.221   7.110   3.199  0.00  0.00    +0.000 C 
ATOM     30  H   UNL     1       5.989   6.205   2.622  0.00  0.00    +0.000 HD
ATOM     31  H   UNL     1       7.113   6.876   3.794  0.00  0.00    +0.000 HD
BRANCH  29  32
ATOM     32  C   UNL     1       5.054   7.389   4.151  0.00  0.00    +0.000 C 
ATOM     33  H   UNL     1       4.141   7.545   3.564  0.00  0.00    +0.000 HD
ATOM     34  H   UNL     1       4.880   6.506   4.778  0.00  0.00    +0.000 HD
BRANCH  32  35
ATOM     35  C   UNL     1       5.276   8.597   5.046  0.00  0.00    +0.000 C 
ATOM     36  H   UNL     1       6.326   8.676   5.343  0.00  0.00    +0.000 HD
ATOM     37  H   UNL     1       4.993   9.521   4.532  0.00  0.00    +0.000 HD
ATOM     38  H   UNL     1       4.670   8.514   5.955  0.00  0.00    +0.000 HD
ENDBRANCH  32  35
ENDBRANCH  29  32
ENDBRANCH  26  29
ENDBRANCH  23  26
ENDBRANCH   1  23
TORSDOF 12
ENDMDL
MODEL 3
REMARK VINA RESULT:    -4.916      1.756      2.092
REMARK INTER + INTRA:          -9.141
REMARK INTER:                  -8.232
REMARK INTRA:                  -0.909
REMARK UNBOUND:                -1.064
REMARK  Name = 3893
REMARK  12 active torsions:
REMARK  status: ('A' for Active; 'I' for Inactive)
REMARK    1  A    between atoms: O_1  and  C_14
REMARK    2  A    between atoms: C_3  and  C_4
REMARK    3  A    between atoms: C_3  and  C_5
REMARK    4  A    between atoms: C_4  and  C_6
REMARK    5  A    between atoms: C_5  and  C_7
REMARK    6  A    between atoms: C_6  and  C_8
REMARK    7  A    between atoms: C_7  and  C_9
REMARK    8  A    between atoms: C_8  and  C_10
REMARK    9  A    between atoms: C_9  and  C_11
REMARK   10  A    between atoms: C_10  and  C_12
REMARK   11  A    between atoms: C_11  and  C_13
REMARK   12  A    between atoms: C_12  and  C_14
REMARK                            x       y       z     vdW  Elec       q    Type
REMARK                         _______ _______ _______ _____ _____    ______ ____
ROOT
ATOM      1  C   UNL     1       5.722   8.146   3.229  0.00  0.00    +0.000 C 
ATOM      2  H   UNL     1       6.166   8.261   4.225  0.00  0.00    +0.000 HD
ATOM      3  H   UNL     1       5.500   7.081   3.093  0.00  0.00    +0.000 HD
ENDROOT
BRANCH   1   4
ATOM      4  C   UNL     1       6.729   8.595   2.166  0.00  0.00    +0.000 C 
ATOM      5  H   UNL     1       6.490   9.618   1.849  0.00  0.00    +0.000 HD
ATOM      6  H   UNL     1       7.731   8.629   2.611  0.00  0.00    +0.000 HD
BRANCH   4   7
ATOM      7  C   UNL     1       6.759   7.686   0.933  0.00  0.00    +0.000 C 
ATOM      8  H   UNL     1       5.845   7.080   0.914  0.00  0.00    +0.000 HD
ATOM      9  H   UNL     1       7.601   6.989   1.025  0.00  0.00    +0.000 HD
BRANCH   7  10
ATOM     10  C   UNL     1       6.884   8.456  -0.384  0.00  0.00    +0.000 C 
ATOM     11  H   UNL     1       6.115   9.236  -0.431  0.00  0.00    +0.000 HD
ATOM     12  H   UNL     1       6.706   7.774  -1.224  0.00  0.00    +0.000 HD
BRANCH  10  13
ATOM     13  C   UNL     1       8.271   9.093  -0.522  0.00  0.00    +0.000 C 
ATOM     14  H   UNL     1       8.946   8.385  -1.019  0.00  0.00    +0.000 HD
ATOM     15  H   UNL     1       8.691   9.278   0.474  0.00  0.00    +0.000 HD
BRANCH  13  16
ATOM     16  C   UNL     1       8.237  10.400  -1.311  0.00  0.00    +0.000 C 
ATOM     17  H   UNL     1       9.076  11.037  -1.009  0.00  0.00    +0.000 HD
ATOM     18  H   UNL     1       8.322  10.185  -2.381  0.00  0.00    +0.000 HD
BRANCH  16  20
ATOM     19  O   UNL     1       6.730  11.829  -0.077  0.00  0.00    +0.000 OA
ATOM     20  C   UNL     1       6.964  11.176  -1.087  0.00  0.00    +0.000 C 
BRANCH  20  21
ATOM     21  O   UNL     1       6.103  11.080  -2.130  0.00  0.00    +0.000 OA
ATOM     22  H   UNL     1       5.970  10.149  -2.411  0.00  0.00    +0.000 HD
ENDBRANCH  20  21
ENDBRANCH  16  20
ENDBRANCH  13  16
ENDBRANCH  10  13
ENDBRANCH   7  10
ENDBRANCH   4   7
ENDBRANCH   1   4
BRANCH   1  23
ATOM     23  C   UNL     1       4.427   8.958   3.144  0.00  0.00    +0.000 C 
ATOM     24  H   UNL     1       4.664  10.009   2.941  0.00  0.00    +0.000 HD
ATOM     25  H   UNL     1       3.905   8.923   4.107  0.00  0.00    +0.000 HD
BRANCH  23  26
ATOM     26  C   UNL     1       3.510   8.423   2.043  0.00  0.00    +0.000 C 
ATOM     27  H   UNL     1       3.862   7.436   1.720  0.00  0.00    +0.000 HD
ATOM     28  H   UNL     1       2.502   8.280   2.452  0.00  0.00    +0.000 HD
BRANCH  26  29
ATOM     29  C   UNL     1       3.424   9.341   0.821  0.00  0.00    +0.000 C 
ATOM     30  H   UNL     1       4.110   8.967   0.050  0.00  0.00    +0.000 HD
ATOM     31  H   UNL     1       2.414   9.266   0.398  0.00  0.00    +0.000 HD
BRANCH  29  32
ATOM     32  C   UNL     1       3.742  10.818   1.074  0.00  0.00    +0.000 C 
ATOM     33  H   UNL     1       3.283  11.127   2.021  0.00  0.00    +0.000 HD
ATOM     34  H   UNL     1       4.825  10.939   1.193  0.00  0.00    +0.000 HD
BRANCH  32  35
ATOM     35  C   UNL     1       3.259  11.742  -0.031  0.00  0.00    +0.000 C 
ATOM     36  H   UNL     1       2.226  11.512  -0.309  0.00  0.00    +0.000 HD
ATOM     37  H   UNL     1       3.303  12.789   0.288  0.00  0.00    +0.000 HD
ATOM     38  H   UNL     1       3.885  11.632  -0.922  0.00  0.00    +0.000 HD
ENDBRANCH  32  35
ENDBRANCH  29  32
ENDBRANCH  26  29
ENDBRANCH  23  26
ENDBRANCH   1  23
TORSDOF 12
ENDMDL
MODEL 4
REMARK VINA RESULT:    -4.881      3.408      5.550
REMARK INTER + INTRA:          -9.084
REMARK INTER:                  -7.903
REMARK INTRA:                  -1.182
REMARK UNBOUND:                -1.064
REMARK  Name = 3893
REMARK  12 active torsions:
REMARK  status: ('A' for Active; 'I' for Inactive)
REMARK    1  A    between atoms: O_1  and  C_14
REMARK    2  A    between atoms: C_3  and  C_4
REMARK    3  A    between atoms: C_3  and  C_5
REMARK    4  A    between atoms: C_4  and  C_6
REMARK    5  A    between atoms: C_5  and  C_7
REMARK    6  A    between atoms: C_6  and  C_8
REMARK    7  A    between atoms: C_7  and  C_9
REMARK    8  A    between atoms: C_8  and  C_10
REMARK    9  A    between atoms: C_9  and  C_11
REMARK   10  A    between atoms: C_10  and  C_12
REMARK   11  A    between atoms: C_11  and  C_13
REMARK   12  A    between atoms: C_12  and  C_14
REMARK                            x       y       z     vdW  Elec       q    Type
REMARK                         _______ _______ _______ _____ _____    ______ ____
ROOT
ATOM      1  C   UNL     1       4.604  11.494  -0.222  0.00  0.00    +0.000 C 
ATOM      2  H   UNL     1       4.212  12.506  -0.385  0.00  0.00    +0.000 HD
ATOM      3  H   UNL     1       4.399  10.917  -1.132  0.00  0.00    +0.000 HD
ENDROOT
BRANCH   1   4
ATOM      4  C   UNL     1       3.882  10.850   0.963  0.00  0.00    +0.000 C 
ATOM      5  H   UNL     1       4.487  10.978   1.870  0.00  0.00    +0.000 HD
ATOM      6  H   UNL     1       2.936  11.376   1.138  0.00  0.00    +0.000 HD
BRANCH   4   7
ATOM      7  C   UNL     1       3.595   9.358   0.764  0.00  0.00    +0.000 C 
ATOM      8  H   UNL     1       4.286   8.959   0.011  0.00  0.00    +0.000 HD
ATOM      9  H   UNL     1       2.583   9.241   0.360  0.00  0.00    +0.000 HD
BRANCH   7  10
ATOM     10  C   UNL     1       3.722   8.538   2.051  0.00  0.00    +0.000 C 
ATOM     11  H   UNL     1       3.047   7.675   2.007  0.00  0.00    +0.000 HD
ATOM     12  H   UNL     1       3.412   9.150   2.906  0.00  0.00    +0.000 HD
BRANCH  10  13
ATOM     13  C   UNL     1       5.161   8.054   2.257  0.00  0.00    +0.000 C 
ATOM     14  H   UNL     1       5.761   8.321   1.377  0.00  0.00    +0.000 HD
ATOM     15  H   UNL     1       5.175   6.959   2.323  0.00  0.00    +0.000 HD
BRANCH  13  16
ATOM     16  C   UNL     1       5.803   8.648   3.508  0.00  0.00    +0.000 C 
ATOM     17  H   UNL     1       6.869   8.391   3.535  0.00  0.00    +0.000 HD
ATOM     18  H   UNL     1       5.702   9.739   3.490  0.00  0.00    +0.000 HD
BRANCH  16  20
ATOM     19  O   UNL     1       5.137   6.955   5.096  0.00  0.00    +0.000 OA
ATOM     20  C   UNL     1       5.173   8.137   4.778  0.00  0.00    +0.000 C 
BRANCH  20  21
ATOM     21  O   UNL     1       4.653   9.132   5.540  0.00  0.00    +0.000 OA
ATOM     22  H   UNL     1       4.214   8.784   6.346  0.00  0.00    +0.000 HD
ENDBRANCH  20  21
ENDBRANCH  16  20
ENDBRANCH  13  16
ENDBRANCH  10  13
ENDBRANCH   7  10
ENDBRANCH   4   7
ENDBRANCH   1   4
BRANCH   1  23
ATOM     23  C   UNL     1       6.115  11.559   0.017  0.00  0.00    +0.000 C 
ATOM     24  H   UNL     1       6.389  10.872   0.827  0.00  0.00    +0.000 HD
ATOM     25  H   UNL     1       6.396  12.568   0.341  0.00  0.00    +0.000 HD
BRANCH  23  26
ATOM     26  C   UNL     1       6.892  11.190  -1.247  0.00  0.00    +0.000 C 
ATOM     27  H   UNL     1       6.228  10.669  -1.947  0.00  0.00    +0.000 HD
ATOM     28  H   UNL     1       7.222  12.108  -1.748  0.00  0.00    +0.000 HD
BRANCH  26  29
ATOM     29  C   UNL     1       8.114  10.306  -0.976  0.00  0.00    +0.000 C 
ATOM     30  H   UNL     1       8.539   9.988  -1.936  0.00  0.00    +0.000 HD
ATOM     31  H   UNL     1       8.883  10.917  -0.486  0.00  0.00    +0.000 HD
BRANCH  29  32
ATOM     32  C   UNL     1       7.858   9.060  -0.123  0.00  0.00    +0.000 C 
ATOM     33  H   UNL     1       8.818   8.640   0.198  0.00  0.00    +0.000 HD
ATOM     34  H   UNL     1       7.319   9.350   0.787  0.00  0.00    +0.000 HD
BRANCH  32  35
ATOM     35  C   UNL     1       7.066   7.982  -0.845  0.00  0.00    +0.000 C 
ATOM     36  H   UNL     1       7.535   7.727  -1.800  0.00  0.00    +0.000 HD
ATOM     37  H   UNL     1       7.003   7.072  -0.239  0.00  0.00    +0.000 HD
ATOM     38  H   UNL     1       6.047   8.328  -1.047  0.00  0.00    +0.000 HD
ENDBRANCH  32  35
ENDBRANCH  29  32
ENDBRANCH  26  29
ENDBRANCH  23  26
ENDBRANCH   1  23
TORSDOF 12
ENDMDL
MODEL 5
REMARK VINA RESULT:    -4.802      3.211      5.138
REMARK INTER + INTRA:          -8.954
REMARK INTER:                  -8.178
REMARK INTRA:                  -0.776
REMARK UNBOUND:                -1.064
REMARK  Name = 3893
REMARK  12 active torsions:
REMARK  status: ('A' for Active; 'I' for Inactive)
REMARK    1  A    between atoms: O_1  and  C_14
REMARK    2  A    between atoms: C_3  and  C_4
REMARK    3  A    between atoms: C_3  and  C_5
REMARK    4  A    between atoms: C_4  and  C_6
REMARK    5  A    between atoms: C_5  and  C_7
REMARK    6  A    between atoms: C_6  and  C_8
REMARK    7  A    between atoms: C_7  and  C_9
REMARK    8  A    between atoms: C_8  and  C_10
REMARK    9  A    between atoms: C_9  and  C_11
REMARK   10  A    between atoms: C_10  and  C_12
REMARK   11  A    between atoms: C_11  and  C_13
REMARK   12  A    between atoms: C_12  and  C_14
REMARK                            x       y       z     vdW  Elec       q    Type
REMARK                         _______ _______ _______ _____ _____    ______ ____
ROOT
ATOM      1  C   UNL     1       6.433   7.931   1.259  0.00  0.00    +0.000 C 
ATOM      2  H   UNL     1       6.544   6.842   1.340  0.00  0.00    +0.000 HD
ATOM      3  H   UNL     1       5.361   8.140   1.157  0.00  0.00    +0.000 HD
ENDROOT
BRANCH   1   4
ATOM      4  C   UNL     1       7.171   8.429   0.014  0.00  0.00    +0.000 C 
ATOM      5  H   UNL     1       7.955   7.710  -0.255  0.00  0.00    +0.000 HD
ATOM      6  H   UNL     1       6.471   8.464  -0.829  0.00  0.00    +0.000 HD
BRANCH   4   7
ATOM      7  C   UNL     1       7.805   9.812   0.195  0.00  0.00    +0.000 C 
ATOM      8  H   UNL     1       8.875   9.747  -0.036  0.00  0.00    +0.000 HD
ATOM      9  H   UNL     1       7.724  10.106   1.248  0.00  0.00    +0.000 HD
BRANCH   7  10
ATOM     10  C   UNL     1       7.164  10.893  -0.680  0.00  0.00    +0.000 C 
ATOM     11  H   UNL     1       6.787  10.443  -1.606  0.00  0.00    +0.000 HD
ATOM     12  H   UNL     1       7.922  11.632  -0.962  0.00  0.00    +0.000 HD
BRANCH  10  13
ATOM     13  C   UNL     1       6.013  11.588   0.057  0.00  0.00    +0.000 C 
ATOM     14  H   UNL     1       6.108  12.674  -0.069  0.00  0.00    +0.000 HD
ATOM     15  H   UNL     1       6.094  11.391   1.133  0.00  0.00    +0.000 HD
BRANCH  13  16
ATOM     16  C   UNL     1       4.643  11.137  -0.442  0.00  0.00    +0.000 C 
ATOM     17  H   UNL     1       4.314  11.787  -1.261  0.00  0.00    +0.000 HD
ATOM     18  H   UNL     1       4.707  10.107  -0.811  0.00  0.00    +0.000 HD
BRANCH  16  20
ATOM     19  O   UNL     1       2.636  11.951   0.626  0.00  0.00    +0.000 OA
ATOM     20  C   UNL     1       3.591  11.185   0.637  0.00  0.00    +0.000 C 
BRANCH  20  21
ATOM     21  O   UNL     1       3.813  10.282   1.624  0.00  0.00    +0.000 OA
ATOM     22  H   UNL     1       3.057  10.227   2.247  0.00  0.00    +0.000 HD
ENDBRANCH  20  21
ENDBRANCH  16  20
ENDBRANCH  13  16
ENDBRANCH  10  13
ENDBRANCH   7  10
ENDBRANCH   4   7
ENDBRANCH   1   4
BRANCH   1  23
ATOM     23  C   UNL     1       6.970   8.600   2.527  0.00  0.00    +0.000 C 
ATOM     24  H   UNL     1       6.559   9.613   2.611  0.00  0.00    +0.000 HD
ATOM     25  H   UNL     1       8.060   8.698   2.461  0.00  0.00    +0.000 HD
BRANCH  23  26
ATOM     26  C   UNL     1       6.602   7.797   3.776  0.00  0.00    +0.000 C 
ATOM     27  H   UNL     1       5.565   7.447   3.695  0.00  0.00    +0.000 HD
ATOM     28  H   UNL     1       7.234   6.902   3.827  0.00  0.00    +0.000 HD
BRANCH  26  29
ATOM     29  C   UNL     1       6.755   8.589   5.078  0.00  0.00    +0.000 C 
ATOM     30  H   UNL     1       5.959   9.343   5.126  0.00  0.00    +0.000 HD
ATOM     31  H   UNL     1       6.587   7.908   5.922  0.00  0.00    +0.000 HD
BRANCH  29  32
ATOM     32  C   UNL     1       8.101   9.293   5.273  0.00  0.00    +0.000 C 
ATOM     33  H   UNL     1       8.908   8.554   5.194  0.00  0.00    +0.000 HD
ATOM     34  H   UNL     1       8.252  10.015   4.462  0.00  0.00    +0.000 HD
BRANCH  32  35
ATOM     35  C   UNL     1       8.223  10.012   6.607  0.00  0.00    +0.000 C 
ATOM     36  H   UNL     1       7.518   9.603   7.337  0.00  0.00    +0.000 HD
ATOM     37  H   UNL     1       9.235   9.913   7.013  0.00  0.00    +0.000 HD
ATOM     38  H   UNL     1       8.008  11.079   6.486  0.00  0.00    +0.000 HD
ENDBRANCH  32  35
ENDBRANCH  29  32
ENDBRANCH  26  29
ENDBRANCH  23  26
ENDBRANCH   1  23
TORSDOF 12
ENDMDL
MODEL 6
REMARK VINA RESULT:    -4.778     13.852     15.218
REMARK INTER + INTRA:          -8.914
REMARK INTER:                  -8.330
REMARK INTRA:                  -0.584
REMARK UNBOUND:                -1.064
REMARK  Name = 3893
REMARK  12 active torsions:
REMARK  status: ('A' for Active; 'I' for Inactive)
REMARK    1  A    between atoms: O_1  and  C_14
REMARK    2  A    between atoms: C_3  and  C_4
REMARK    3  A    between atoms: C_3  and  C_5
REMARK    4  A    between atoms: C_4  and  C_6
REMARK    5  A    between atoms: C_5  and  C_7
REMARK    6  A    between atoms: C_6  and  C_8
REMARK    7  A    between atoms: C_7  and  C_9
REMARK    8  A    between atoms: C_8  and  C_10
REMARK    9  A    between atoms: C_9  and  C_11
REMARK   10  A    between atoms: C_10  and  C_12
REMARK   11  A    between atoms: C_11  and  C_13
REMARK   12  A    between atoms: C_12  and  C_14
REMARK                            x       y       z     vdW  Elec       q    Type
REMARK                         _______ _______ _______ _____ _____    ______ ____
ROOT
ATOM      1  C   UNL     1      -2.799   8.505  -9.015  0.00  0.00    +0.000 C 
ATOM      2  H   UNL     1      -3.688   8.532  -8.373  0.00  0.00    +0.000 HD
ATOM      3  H   UNL     1      -1.923   8.464  -8.355  0.00  0.00    +0.000 HD
ENDROOT
BRANCH   1   4
ATOM      4  C   UNL     1      -2.739   9.780  -9.860  0.00  0.00    +0.000 C 
ATOM      5  H   UNL     1      -3.464   9.705 -10.681  0.00  0.00    +0.000 HD
ATOM      6  H   UNL     1      -3.047  10.634  -9.245  0.00  0.00    +0.000 HD
BRANCH   4   7
ATOM      7  C   UNL     1      -1.351  10.059 -10.445  0.00  0.00    +0.000 C 
ATOM      8  H   UNL     1      -0.638   9.335 -10.032  0.00  0.00    +0.000 HD
ATOM      9  H   UNL     1      -1.020  11.052 -10.119  0.00  0.00    +0.000 HD
BRANCH   7  10
ATOM     10  C   UNL     1      -1.313   9.992 -11.974  0.00  0.00    +0.000 C 
ATOM     11  H   UNL     1      -1.097  10.987 -12.382  0.00  0.00    +0.000 HD
ATOM     12  H   UNL     1      -2.297   9.692 -12.352  0.00  0.00    +0.000 HD
BRANCH  10  13
ATOM     13  C   UNL     1      -0.250   8.998 -12.456  0.00  0.00    +0.000 C 
ATOM     14  H   UNL     1      -0.294   8.093 -11.835  0.00  0.00    +0.000 HD
ATOM     15  H   UNL     1       0.748   9.427 -12.310  0.00  0.00    +0.000 HD
BRANCH  13  16
ATOM     16  C   UNL     1      -0.431   8.615 -13.922  0.00  0.00    +0.000 C 
ATOM     17  H   UNL     1      -0.307   7.532 -14.041  0.00  0.00    +0.000 HD
ATOM     18  H   UNL     1      -1.438   8.895 -14.254  0.00  0.00    +0.000 HD
BRANCH  16  20
ATOM     19  O   UNL     1       0.951  10.449 -14.671  0.00  0.00    +0.000 OA
ATOM     20  C   UNL     1       0.567   9.296 -14.824  0.00  0.00    +0.000 C 
BRANCH  20  21
ATOM     21  O   UNL     1       1.001   8.490 -15.824  0.00  0.00    +0.000 OA
ATOM     22  H   UNL     1       1.694   8.923 -16.369  0.00  0.00    +0.000 HD
ENDBRANCH  20  21
ENDBRANCH  16  20
ENDBRANCH  13  16
ENDBRANCH  10  13
ENDBRANCH   7  10
ENDBRANCH   4   7
ENDBRANCH   1   4
BRANCH   1  23
ATOM     23  C   UNL     1      -2.838   7.255  -9.898  0.00  0.00    +0.000 C 
ATOM     24  H   UNL     1      -2.221   6.468  -9.450  0.00  0.00    +0.000 HD
ATOM     25  H   UNL     1      -2.408   7.483 -10.881  0.00  0.00    +0.000 HD
BRANCH  23  26
ATOM     26  C   UNL     1      -4.269   6.744 -10.071  0.00  0.00    +0.000 C 
ATOM     27  H   UNL     1      -4.891   7.535 -10.506  0.00  0.00    +0.000 HD
ATOM     28  H   UNL     1      -4.270   5.912 -10.785  0.00  0.00    +0.000 HD
BRANCH  26  29
ATOM     29  C   UNL     1      -4.911   6.275  -8.761  0.00  0.00    +0.000 C 
ATOM     30  H   UNL     1      -4.225   5.578  -8.263  0.00  0.00    +0.000 HD
ATOM     31  H   UNL     1      -5.009   7.140  -8.093  0.00  0.00    +0.000 HD
BRANCH  29  32
ATOM     32  C   UNL     1      -6.277   5.598  -8.895  0.00  0.00    +0.000 C 
ATOM     33  H   UNL     1      -6.153   4.513  -8.791  0.00  0.00    +0.000 HD
ATOM     34  H   UNL     1      -6.924   5.923  -8.070  0.00  0.00    +0.000 HD
BRANCH  32  35
ATOM     35  C   UNL     1      -6.973   5.888 -10.214  0.00  0.00    +0.000 C 
ATOM     36  H   UNL     1      -6.749   6.902 -10.559  0.00  0.00    +0.000 HD
ATOM     37  H   UNL     1      -6.653   5.183 -10.988  0.00  0.00    +0.000 HD
ATOM     38  H   UNL     1      -8.059   5.798 -10.100  0.00  0.00    +0.000 HD
ENDBRANCH  32  35
ENDBRANCH  29  32
ENDBRANCH  26  29
ENDBRANCH  23  26
ENDBRANCH   1  23
TORSDOF 12
ENDMDL
MODEL 7
REMARK VINA RESULT:    -4.693      3.659      5.700
REMARK INTER + INTRA:          -8.774
REMARK INTER:                  -8.232
REMARK INTRA:                  -0.542
REMARK UNBOUND:                -1.064
REMARK  Name = 3893
REMARK  12 active torsions:
REMARK  status: ('A' for Active; 'I' for Inactive)
REMARK    1  A    between atoms: O_1  and  C_14
REMARK    2  A    between atoms: C_3  and  C_4
REMARK    3  A    between atoms: C_3  and  C_5
REMARK    4  A    between atoms: C_4  and  C_6
REMARK    5  A    between atoms: C_5  and  C_7
REMARK    6  A    between atoms: C_6  and  C_8
REMARK    7  A    between atoms: C_7  and  C_9
REMARK    8  A    between atoms: C_8  and  C_10
REMARK    9  A    between atoms: C_9  and  C_11
REMARK   10  A    between atoms: C_10  and  C_12
REMARK   11  A    between atoms: C_11  and  C_13
REMARK   12  A    between atoms: C_12  and  C_14
REMARK                            x       y       z     vdW  Elec       q    Type
REMARK                         _______ _______ _______ _____ _____    ______ ____
ROOT
ATOM      1  C   UNL     1       6.580   7.875   3.191  0.00  0.00    +0.000 C 
ATOM      2  H   UNL     1       6.852   6.866   2.857  0.00  0.00    +0.000 HD
ATOM      3  H   UNL     1       5.533   8.039   2.907  0.00  0.00    +0.000 HD
ENDROOT
BRANCH   1   4
ATOM      4  C   UNL     1       7.466   8.904   2.483  0.00  0.00    +0.000 C 
ATOM      5  H   UNL     1       7.544   9.804   3.107  0.00  0.00    +0.000 HD
ATOM      6  H   UNL     1       8.480   8.499   2.384  0.00  0.00    +0.000 HD
BRANCH   4   7
ATOM      7  C   UNL     1       6.948   9.303   1.098  0.00  0.00    +0.000 C 
ATOM      8  H   UNL     1       7.778   9.263   0.382  0.00  0.00    +0.000 HD
ATOM      9  H   UNL     1       6.608  10.345   1.132  0.00  0.00    +0.000 HD
BRANCH   7  10
ATOM     10  C   UNL     1       5.806   8.416   0.598  0.00  0.00    +0.000 C 
ATOM     11  H   UNL     1       5.634   7.599   1.309  0.00  0.00    +0.000 HD
ATOM     12  H   UNL     1       6.087   7.961  -0.358  0.00  0.00    +0.000 HD
BRANCH  10  13
ATOM     13  C   UNL     1       4.515   9.225   0.424  0.00  0.00    +0.000 C 
ATOM     14  H   UNL     1       3.927   9.169   1.349  0.00  0.00    +0.000 HD
ATOM     15  H   UNL     1       3.901   8.772  -0.364  0.00  0.00    +0.000 HD
BRANCH  13  16
ATOM     16  C   UNL     1       4.785  10.687   0.081  0.00  0.00    +0.000 C 
ATOM     17  H   UNL     1       5.348  11.161   0.894  0.00  0.00    +0.000 HD
ATOM     18  H   UNL     1       5.375  10.747  -0.839  0.00  0.00    +0.000 HD
BRANCH  16  20
ATOM     19  O   UNL     1       2.786  11.844   0.791  0.00  0.00    +0.000 OA
ATOM     20  C   UNL     1       3.516  11.476  -0.121  0.00  0.00    +0.000 C 
BRANCH  20  21
ATOM     21  O   UNL     1       3.269  11.742  -1.428  0.00  0.00    +0.000 OA
ATOM     22  H   UNL     1       3.345  10.938  -1.986  0.00  0.00    +0.000 HD
ENDBRANCH  20  21
ENDBRANCH  16  20
ENDBRANCH  13  16
ENDBRANCH  10  13
ENDBRANCH   7  10
ENDBRANCH   4   7
ENDBRANCH   1   4
BRANCH   1  23
ATOM     23  C   UNL     1       6.723   7.972   4.712  0.00  0.00    +0.000 C 
ATOM     24  H   UNL     1       6.971   6.985   5.121  0.00  0.00    +0.000 HD
ATOM     25  H   UNL     1       5.767   8.274   5.155  0.00  0.00    +0.000 HD
BRANCH  23  26
ATOM     26  C   UNL     1       7.810   8.973   5.103  0.00  0.00    +0.000 C 
ATOM     27  H   UNL     1       8.781   8.464   5.141  0.00  0.00    +0.000 HD
ATOM     28  H   UNL     1       7.887   9.743   4.326  0.00  0.00    +0.000 HD
BRANCH  26  29
ATOM     29  C   UNL     1       7.556   9.653   6.452  0.00  0.00    +0.000 C 
ATOM     30  H   UNL     1       7.103  10.636   6.271  0.00  0.00    +0.000 HD
ATOM     31  H   UNL     1       6.809   9.067   7.002  0.00  0.00    +0.000 HD
BRANCH  29  32
ATOM     32  C   UNL     1       8.786   9.842   7.344  0.00  0.00    +0.000 C 
ATOM     33  H   UNL     1       9.594   9.194   6.985  0.00  0.00    +0.000 HD
ATOM     34  H   UNL     1       9.144  10.875   7.251  0.00  0.00    +0.000 HD
BRANCH  32  35
ATOM     35  C   UNL     1       8.526   9.538   8.811  0.00  0.00    +0.000 C 
ATOM     36  H   UNL     1       8.004  10.369   9.295  0.00  0.00    +0.000 HD
ATOM     37  H   UNL     1       7.915   8.636   8.921  0.00  0.00    +0.000 HD
ATOM     38  H   UNL     1       9.471   9.375   9.339  0.00  0.00    +0.000 HD
ENDBRANCH  32  35
ENDBRANCH  29  32
ENDBRANCH  26  29
ENDBRANCH  23  26
ENDBRANCH   1  23
TORSDOF 12
ENDMDL
MODEL 8
REMARK VINA RESULT:    -4.641      3.016      4.882
REMARK INTER + INTRA:          -8.689
REMARK INTER:                  -7.894
REMARK INTRA:                  -0.795
REMARK UNBOUND:                -1.064
REMARK  Name = 3893
REMARK  12 active torsions:
REMARK  status: ('A' for Active; 'I' for Inactive)
REMARK    1  A    between atoms: O_1  and  C_14
REMARK    2  A    between atoms: C_3  and  C_4
REMARK    3  A    between atoms: C_3  and  C_5
REMARK    4  A    between atoms: C_4  and  C_6
REMARK    5  A    between atoms: C_5  and  C_7
REMARK    6  A    between atoms: C_6  and  C_8
REMARK    7  A    between atoms: C_7  and  C_9
REMARK    8  A    between atoms: C_8  and  C_10
REMARK    9  A    between atoms: C_9  and  C_11
REMARK   10  A    between atoms: C_10  and  C_12
REMARK   11  A    between atoms: C_11  and  C_13
REMARK   12  A    between atoms: C_12  and  C_14
REMARK                            x       y       z     vdW  Elec       q    Type
REMARK                         _______ _______ _______ _____ _____    ______ ____
ROOT
ATOM      1  C   UNL     1       8.037   9.157   3.019  0.00  0.00    +0.000 C 
ATOM      2  H   UNL     1       8.340   8.114   2.863  0.00  0.00    +0.000 HD
ATOM      3  H   UNL     1       6.941   9.184   2.990  0.00  0.00    +0.000 HD
ENDROOT
BRANCH   1   4
ATOM      4  C   UNL     1       8.597  10.027   1.891  0.00  0.00    +0.000 C 
ATOM      5  H   UNL     1       8.561  11.081   2.194  0.00  0.00    +0.000 HD
ATOM      6  H   UNL     1       9.654   9.779   1.736  0.00  0.00    +0.000 HD
BRANCH   4   7
ATOM      7  C   UNL     1       7.845   9.865   0.567  0.00  0.00    +0.000 C 
ATOM      8  H   UNL     1       8.573   9.732  -0.243  0.00  0.00    +0.000 HD
ATOM      9  H   UNL     1       7.297  10.790   0.352  0.00  0.00    +0.000 HD
BRANCH   7  10
ATOM     10  C   UNL     1       6.865   8.689   0.565  0.00  0.00    +0.000 C 
ATOM     11  H   UNL     1       6.755   8.298   1.584  0.00  0.00    +0.000 HD
ATOM     12  H   UNL     1       7.269   7.878  -0.052  0.00  0.00    +0.000 HD
BRANCH  10  13
ATOM     13  C   UNL     1       5.494   9.113   0.027  0.00  0.00    +0.000 C 
ATOM     14  H   UNL     1       4.726   8.435   0.420  0.00  0.00    +0.000 HD
ATOM     15  H   UNL     1       5.477   9.004  -1.064  0.00  0.00    +0.000 HD
BRANCH  13  16
ATOM     16  C   UNL     1       5.141  10.551   0.400  0.00  0.00    +0.000 C 
ATOM     17  H   UNL     1       5.917  10.966   1.054  0.00  0.00    +0.000 HD
ATOM     18  H   UNL     1       5.079  11.161  -0.508  0.00  0.00    +0.000 HD
BRANCH  16  20
ATOM     19  O   UNL     1       3.116  11.651   1.123  0.00  0.00    +0.000 OA
ATOM     20  C   UNL     1       3.824  10.651   1.126  0.00  0.00    +0.000 C 
BRANCH  20  21
ATOM     21  O   UNL     1       3.500   9.510   1.782  0.00  0.00    +0.000 OA
ATOM     22  H   UNL     1       3.588   8.719   1.207  0.00  0.00    +0.000 HD
ENDBRANCH  20  21
ENDBRANCH  16  20
ENDBRANCH  13  16
ENDBRANCH  10  13
ENDBRANCH   7  10
ENDBRANCH   4   7
ENDBRANCH   1   4
BRANCH   1  23
ATOM     23  C   UNL     1       8.528   9.638   4.387  0.00  0.00    +0.000 C 
ATOM     24  H   UNL     1       8.412  10.726   4.458  0.00  0.00    +0.000 HD
ATOM     25  H   UNL     1       9.597   9.419   4.495  0.00  0.00    +0.000 HD
BRANCH  23  26
ATOM     26  C   UNL     1       7.750   8.970   5.522  0.00  0.00    +0.000 C 
ATOM     27  H   UNL     1       8.299   8.088   5.873  0.00  0.00    +0.000 HD
ATOM     28  H   UNL     1       7.686   9.661   6.371  0.00  0.00    +0.000 HD
BRANCH  26  29
ATOM     29  C   UNL     1       6.334   8.543   5.121  0.00  0.00    +0.000 C 
ATOM     30  H   UNL     1       5.633   8.880   5.895  0.00  0.00    +0.000 HD
ATOM     31  H   UNL     1       6.058   9.074   4.201  0.00  0.00    +0.000 HD
BRANCH  29  32
ATOM     32  C   UNL     1       6.129   7.041   4.902  0.00  0.00    +0.000 C 
ATOM     33  H   UNL     1       7.106   6.558   4.783  0.00  0.00    +0.000 HD
ATOM     34  H   UNL     1       5.668   6.606   5.797  0.00  0.00    +0.000 HD
BRANCH  32  35
ATOM     35  C   UNL     1       5.269   6.715   3.693  0.00  0.00    +0.000 C 
ATOM     36  H   UNL     1       4.312   7.243   3.739  0.00  0.00    +0.000 HD
ATOM     37  H   UNL     1       5.775   7.001   2.764  0.00  0.00    +0.000 HD
ATOM     38  H   UNL     1       5.063   5.640   3.650  0.00  0.00    +0.000 HD
ENDBRANCH  32  35
ENDBRANCH  29  32
ENDBRANCH  26  29
ENDBRANCH  23  26
ENDBRANCH   1  23
TORSDOF 12
ENDMDL
MODEL 9
REMARK VINA RESULT:    -4.605      2.841      5.362
REMARK INTER + INTRA:          -8.630
REMARK INTER:                  -7.668
REMARK INTRA:                  -0.962
REMARK UNBOUND:                -1.064
REMARK  Name = 3893
REMARK  12 active torsions:
REMARK  status: ('A' for Active; 'I' for Inactive)
REMARK    1  A    between atoms: O_1  and  C_14
REMARK    2  A    between atoms: C_3  and  C_4
REMARK    3  A    between atoms: C_3  and  C_5
REMARK    4  A    between atoms: C_4  and  C_6
REMARK    5  A    between atoms: C_5  and  C_7
REMARK    6  A    between atoms: C_6  and  C_8
REMARK    7  A    between atoms: C_7  and  C_9
REMARK    8  A    between atoms: C_8  and  C_10
REMARK    9  A    between atoms: C_9  and  C_11
REMARK   10  A    between atoms: C_10  and  C_12
REMARK   11  A    between atoms: C_11  and  C_13
REMARK   12  A    between atoms: C_12  and  C_14
REMARK                            x       y       z     vdW  Elec       q    Type
REMARK                         _______ _______ _______ _____ _____    ______ ____
ROOT
ATOM      1  C   UNL     1       4.850  10.889  -1.025  0.00  0.00    +0.000 C 
ATOM      2  H   UNL     1       4.306  11.308  -1.880  0.00  0.00    +0.000 HD
ATOM      3  H   UNL     1       4.594   9.824  -0.968  0.00  0.00    +0.000 HD
ENDROOT
BRANCH   1   4
ATOM      4  C   UNL     1       4.401  11.589   0.260  0.00  0.00    +0.000 C 
ATOM      5  H   UNL     1       5.284  11.929   0.816  0.00  0.00    +0.000 HD
ATOM      6  H   UNL     1       3.827  12.486  -0.000  0.00  0.00    +0.000 HD
BRANCH   4   7
ATOM      7  C   UNL     1       3.552  10.699   1.173  0.00  0.00    +0.000 C 
ATOM      8  H   UNL     1       2.490  10.892   0.974  0.00  0.00    +0.000 HD
ATOM      9  H   UNL     1       3.735  10.982   2.217  0.00  0.00    +0.000 HD
BRANCH   7  10
ATOM     10  C   UNL     1       3.836   9.205   0.999  0.00  0.00    +0.000 C 
ATOM     11  H   UNL     1       4.632   9.064   0.259  0.00  0.00    +0.000 HD
ATOM     12  H   UNL     1       2.940   8.705   0.613  0.00  0.00    +0.000 HD
BRANCH  10  13
ATOM     13  C   UNL     1       4.251   8.564   2.329  0.00  0.00    +0.000 C 
ATOM     14  H   UNL     1       3.602   7.702   2.532  0.00  0.00    +0.000 HD
ATOM     15  H   UNL     1       4.088   9.276   3.147  0.00  0.00    +0.000 HD
BRANCH  13  16
ATOM     16  C   UNL     1       5.709   8.112   2.329  0.00  0.00    +0.000 C 
ATOM     17  H   UNL     1       5.830   7.251   1.661  0.00  0.00    +0.000 HD
ATOM     18  H   UNL     1       6.347   8.929   1.973  0.00  0.00    +0.000 HD
BRANCH  16  20
ATOM     19  O   UNL     1       7.085   8.273   4.307  0.00  0.00    +0.000 OA
ATOM     20  C   UNL     1       6.187   7.704   3.699  0.00  0.00    +0.000 C 
BRANCH  20  21
ATOM     21  O   UNL     1       5.510   6.638   4.192  0.00  0.00    +0.000 OA
ATOM     22  H   UNL     1       4.670   6.481   3.709  0.00  0.00    +0.000 HD
ENDBRANCH  20  21
ENDBRANCH  16  20
ENDBRANCH  13  16
ENDBRANCH  10  13
ENDBRANCH   7  10
ENDBRANCH   4   7
ENDBRANCH   1   4
BRANCH   1  23
ATOM     23  C   UNL     1       6.357  11.046  -1.245  0.00  0.00    +0.000 C 
ATOM     24  H   UNL     1       6.568  12.044  -1.646  0.00  0.00    +0.000 HD
ATOM     25  H   UNL     1       6.700  10.318  -1.990  0.00  0.00    +0.000 HD
BRANCH  23  26
ATOM     26  C   UNL     1       7.130  10.848   0.060  0.00  0.00    +0.000 C 
ATOM     27  H   UNL     1       7.692  11.760   0.295  0.00  0.00    +0.000 HD
ATOM     28  H   UNL     1       6.419  10.695   0.880  0.00  0.00    +0.000 HD
BRANCH  26  29
ATOM     29  C   UNL     1       8.103   9.666   0.018  0.00  0.00    +0.000 C 
ATOM     30  H   UNL     1       8.251   9.296   1.041  0.00  0.00    +0.000 HD
ATOM     31  H   UNL     1       7.633   8.847  -0.541  0.00  0.00    +0.000 HD
BRANCH  29  32
ATOM     32  C   UNL     1       9.476   9.956  -0.595  0.00  0.00    +0.000 C 
ATOM     33  H   UNL     1       9.454  10.940  -1.077  0.00  0.00    +0.000 HD
ATOM     34  H   UNL     1      10.225  10.011   0.205  0.00  0.00    +0.000 HD
BRANCH  32  35
ATOM     35  C   UNL     1       9.918   8.919  -1.615  0.00  0.00    +0.000 C 
ATOM     36  H   UNL     1      10.312   8.027  -1.120  0.00  0.00    +0.000 HD
ATOM     37  H   UNL     1       9.080   8.616  -2.252  0.00  0.00    +0.000 HD
ATOM     38  H   UNL     1      10.703   9.328  -2.258  0.00  0.00    +0.000 HD
ENDBRANCH  32  35
ENDBRANCH  29  32
ENDBRANCH  26  29
ENDBRANCH  23  26
ENDBRANCH   1  23
TORSDOF 12
ENDMDL
MODEL 10
REMARK VINA RESULT:    -4.520     15.110     16.449
REMARK INTER + INTRA:          -8.491
REMARK INTER:                  -7.427
REMARK INTRA:                  -1.064
REMARK UNBOUND:                -1.064
REMARK  Name = 3893
REMARK  12 active torsions:
REMARK  status: ('A' for Active; 'I' for Inactive)
REMARK    1  A    between atoms: O_1  and  C_14
REMARK    2  A    between atoms: C_3  and  C_4
REMARK    3  A    between atoms: C_3  and  C_5
REMARK    4  A    between atoms: C_4  and  C_6
REMARK    5  A    between atoms: C_5  and  C_7
REMARK    6  A    between atoms: C_6  and  C_8
REMARK    7  A    between atoms: C_7  and  C_9
REMARK    8  A    between atoms: C_8  and  C_10
REMARK    9  A    between atoms: C_9  and  C_11
REMARK   10  A    between atoms: C_10  and  C_12
REMARK   11  A    between atoms: C_11  and  C_13
REMARK   12  A    between atoms: C_12  and  C_14
REMARK                            x       y       z     vdW  Elec       q    Type
REMARK                         _______ _______ _______ _____ _____    ______ ____
ROOT
ATOM      1  C   UNL     1      -6.618  14.225   6.960  0.00  0.00    +0.000 C 
ATOM      2  H   UNL     1      -6.433  15.302   7.055  0.00  0.00    +0.000 HD
ATOM      3  H   UNL     1      -7.701  14.073   7.048  0.00  0.00    +0.000 HD
ENDROOT
BRANCH   1   4
ATOM      4  C   UNL     1      -5.907  13.481   8.093  0.00  0.00    +0.000 C 
ATOM      5  H   UNL     1      -5.065  12.911   7.680  0.00  0.00    +0.000 HD
ATOM      6  H   UNL     1      -5.481  14.211   8.792  0.00  0.00    +0.000 HD
BRANCH   4   7
ATOM      7  C   UNL     1      -6.823  12.526   8.864  0.00  0.00    +0.000 C 
ATOM      8  H   UNL     1      -7.183  11.747   8.181  0.00  0.00    +0.000 HD
ATOM      9  H   UNL     1      -7.705  13.078   9.208  0.00  0.00    +0.000 HD
BRANCH   7  10
ATOM     10  C   UNL     1      -6.140  11.868  10.066  0.00  0.00    +0.000 C 
ATOM     11  H   UNL     1      -6.519  12.312  10.994  0.00  0.00    +0.000 HD
ATOM     12  H   UNL     1      -5.063  12.064  10.027  0.00  0.00    +0.000 HD
BRANCH  10  13
ATOM     13  C   UNL     1      -6.389  10.356  10.082  0.00  0.00    +0.000 C 
ATOM     14  H   UNL     1      -6.282   9.983  11.109  0.00  0.00    +0.000 HD
ATOM     15  H   UNL     1      -5.621   9.850   9.485  0.00  0.00    +0.000 HD
BRANCH  13  16
ATOM     16  C   UNL     1      -7.772   9.986   9.550  0.00  0.00    +0.000 C 
ATOM     17  H   UNL     1      -8.334  10.897   9.313  0.00  0.00    +0.000 HD
ATOM     18  H   UNL     1      -7.667   9.387   8.639  0.00  0.00    +0.000 HD
BRANCH  16  20
ATOM     19  O   UNL     1      -9.395   9.686  11.313  0.00  0.00    +0.000 OA
ATOM     20  C   UNL     1      -8.579   9.192  10.545  0.00  0.00    +0.000 C 
BRANCH  20  21
ATOM     21  O   UNL     1      -8.310   7.864  10.495  0.00  0.00    +0.000 OA
ATOM     22  H   UNL     1      -8.720   7.378  11.243  0.00  0.00    +0.000 HD
ENDBRANCH  20  21
ENDBRANCH  16  20
ENDBRANCH  13  16
ENDBRANCH  10  13
ENDBRANCH   7  10
ENDBRANCH   4   7
ENDBRANCH   1   4
BRANCH   1  23
ATOM     23  C   UNL     1      -6.140  13.738   5.590  0.00  0.00    +0.000 C 
ATOM     24  H   UNL     1      -5.372  12.966   5.721  0.00  0.00    +0.000 HD
ATOM     25  H   UNL     1      -5.674  14.567   5.044  0.00  0.00    +0.000 HD
BRANCH  23  26
ATOM     26  C   UNL     1      -7.297  13.169   4.769  0.00  0.00    +0.000 C 
ATOM     27  H   UNL     1      -8.250  13.461   5.227  0.00  0.00    +0.000 HD
ATOM     28  H   UNL     1      -7.280  13.612   3.766  0.00  0.00    +0.000 HD
BRANCH  26  29
ATOM     29  C   UNL     1      -7.259  11.643   4.638  0.00  0.00    +0.000 C 
ATOM     30  H   UNL     1      -7.577  11.369   3.623  0.00  0.00    +0.000 HD
ATOM     31  H   UNL     1      -6.218  11.311   4.735  0.00  0.00    +0.000 HD
BRANCH  29  32
ATOM     32  C   UNL     1      -8.119  10.868   5.640  0.00  0.00    +0.000 C 
ATOM     33  H   UNL     1      -8.486   9.950   5.165  0.00  0.00    +0.000 HD
ATOM     34  H   UNL     1      -7.494  10.557   6.487  0.00  0.00    +0.000 HD
BRANCH  32  35
ATOM     35  C   UNL     1      -9.305  11.659   6.164  0.00  0.00    +0.000 C 
ATOM     36  H   UNL     1     -10.118  11.675   5.432  0.00  0.00    +0.000 HD
ATOM     37  H   UNL     1      -9.688  11.222   7.092  0.00  0.00    +0.000 HD
ATOM     38  H   UNL     1      -9.012  12.694   6.371  0.00  0.00    +0.000 HD
ENDBRANCH  32  35
ENDBRANCH  29  32
ENDBRANCH  26  29
ENDBRANCH  23  26
ENDBRANCH   1  23
TORSDOF 12
ENDMDL
