MODEL 1
REMARK VINA RESULT:    -4.770      0.000      0.000
REMARK INTER + INTRA:          -8.351
REMARK INTER:                  -7.139
REMARK INTRA:                  -1.212
REMARK UNBOUND:                -0.653
REMARK  Name = 8194
REMARK  11 active torsions:
REMARK  status: ('A' for Active; 'I' for Inactive)
REMARK    1  A    between atoms: C_2  and  C_3
REMARK    2  A    between atoms: C_2  and  C_4
REMARK    3  A    between atoms: C_3  and  C_5
REMARK    4  A    between atoms: C_4  and  C_6
REMARK    5  A    between atoms: C_5  and  C_7
REMARK    6  A    between atoms: C_6  and  C_8
REMARK    7  A    between atoms: C_7  and  C_9
REMARK    8  A    between atoms: C_8  and  C_10
REMARK    9  A    between atoms: C_9  and  C_11
REMARK   10  A    between atoms: C_10  and  C_12
REMARK   11  A    between atoms: C_11  and  C_13
REMARK                            x       y       z     vdW  Elec       q    Type
REMARK                         _______ _______ _______ _____ _____    ______ ____
ROOT
ATOM      1  C   UNL     1      -2.787   9.550  -9.480  0.00  0.00    +0.000 C 
ATOM      2  H   UNL     1      -3.434   9.657 -10.360  0.00  0.00    +0.000 HD
ATOM      3  H   UNL     1      -3.060  10.363  -8.795  0.00  0.00    +0.000 HD
ENDROOT
BRANCH   1   4
ATOM      4  C   UNL     1      -1.331   9.748  -9.911  0.00  0.00    +0.000 C 
ATOM      5  H   UNL     1      -0.753   8.860  -9.627  0.00  0.00    +0.000 HD
ATOM      6  H   UNL     1      -0.908  10.593  -9.354  0.00  0.00    +0.000 HD
BRANCH   4   7
ATOM      7  C   UNL     1      -1.169  10.003 -11.412  0.00  0.00    +0.000 C 
ATOM      8  H   UNL     1      -2.156  10.129 -11.871  0.00  0.00    +0.000 HD
ATOM      9  H   UNL     1      -0.618  10.938 -11.565  0.00  0.00    +0.000 HD
BRANCH   7  10
ATOM     10  C   UNL     1      -0.426   8.850 -12.091  0.00  0.00    +0.000 C 
ATOM     11  H   UNL     1       0.642   8.900 -11.847  0.00  0.00    +0.000 HD
ATOM     12  H   UNL     1      -0.802   7.894 -11.709  0.00  0.00    +0.000 HD
BRANCH  10  13
ATOM     13  C   UNL     1      -0.601   8.897 -13.613  0.00  0.00    +0.000 C 
ATOM     14  H   UNL     1      -1.531   9.429 -13.855  0.00  0.00    +0.000 HD
ATOM     15  H   UNL     1      -0.721   7.874 -13.992  0.00  0.00    +0.000 HD
BRANCH  13  16
ATOM     16  C   UNL     1       0.570   9.569 -14.322  0.00  0.00    +0.000 C 
ATOM     17  H   UNL     1       0.426  10.654 -14.363  0.00  0.00    +0.000 HD
ATOM     18  H   UNL     1       1.506   9.364 -13.793  0.00  0.00    +0.000 HD
BRANCH  16  20
ATOM     19  O   UNL     1       0.329   9.687 -16.718  0.00  0.00    +0.000 OA
ATOM     20  C   UNL     1       0.727   9.068 -15.736  0.00  0.00    +0.000 C 
ATOM     21  H   UNL     1       1.241   8.098 -15.842  0.00  0.00    +0.000 HD
ENDBRANCH  16  20
ENDBRANCH  13  16
ENDBRANCH  10  13
ENDBRANCH   7  10
ENDBRANCH   4   7
ENDBRANCH   1   4
BRANCH   1  22
ATOM     22  C   UNL     1      -3.104   8.215  -8.796  0.00  0.00    +0.000 C 
ATOM     23  H   UNL     1      -4.131   8.243  -8.414  0.00  0.00    +0.000 HD
ATOM     24  H   UNL     1      -2.445   8.095  -7.927  0.00  0.00    +0.000 HD
BRANCH  22  25
ATOM     25  C   UNL     1      -2.946   7.007  -9.724  0.00  0.00    +0.000 C 
ATOM     26  H   UNL     1      -2.011   7.106 -10.289  0.00  0.00    +0.000 HD
ATOM     27  H   UNL     1      -2.856   6.098  -9.117  0.00  0.00    +0.000 HD
BRANCH  25  28
ATOM     28  C   UNL     1      -4.110   6.842 -10.706  0.00  0.00    +0.000 C 
ATOM     29  H   UNL     1      -4.905   7.549 -10.441  0.00  0.00    +0.000 HD
ATOM     30  H   UNL     1      -4.532   5.835 -10.593  0.00  0.00    +0.000 HD
BRANCH  28  31
ATOM     31  C   UNL     1      -3.707   7.057 -12.165  0.00  0.00    +0.000 C 
ATOM     32  H   UNL     1      -4.083   6.231 -12.780  0.00  0.00    +0.000 HD
ATOM     33  H   UNL     1      -2.614   7.056 -12.252  0.00  0.00    +0.000 HD
BRANCH  31  34
ATOM     34  C   UNL     1      -4.253   8.372 -12.703  0.00  0.00    +0.000 C 
ATOM     35  H   UNL     1      -4.454   9.074 -11.888  0.00  0.00    +0.000 HD
ATOM     36  H   UNL     1      -5.183   8.213 -13.257  0.00  0.00    +0.000 HD
ATOM     37  H   UNL     1      -3.528   8.834 -13.380  0.00  0.00    +0.000 HD
ENDBRANCH  31  34
ENDBRANCH  28  31
ENDBRANCH  25  28
ENDBRANCH  22  25
ENDBRANCH   1  22
TORSDOF 11
ENDMDL
MODEL 2
REMARK VINA RESULT:    -4.682     16.591     18.615
REMARK INTER + INTRA:          -8.209
REMARK INTER:                  -7.594
REMARK INTRA:                  -0.615
REMARK UNBOUND:                -0.653
REMARK  Name = 8194
REMARK  11 active torsions:
REMARK  status: ('A' for Active; 'I' for Inactive)
REMARK    1  A    between atoms: C_2  and  C_3
REMARK    2  A    between atoms: C_2  and  C_4
REMARK    3  A    between atoms: C_3  and  C_5
REMARK    4  A    between atoms: C_4  and  C_6
REMARK    5  A    between atoms: C_5  and  C_7
REMARK    6  A    between atoms: C_6  and  C_8
REMARK    7  A    between atoms: C_7  and  C_9
REMARK    8  A    between atoms: C_8  and  C_10
REMARK    9  A    between atoms: C_9  and  C_11
REMARK   10  A    between atoms: C_10  and  C_12
REMARK   11  A    between atoms: C_11  and  C_13
REMARK                            x       y       z     vdW  Elec       q    Type
REMARK                         _______ _______ _______ _____ _____    ______ ____
ROOT
ATOM      1  C   UNL     1       6.917   7.675   5.204  0.00  0.00    +0.000 C 
ATOM      2  H   UNL     1       7.537   6.771   5.252  0.00  0.00    +0.000 HD
ATOM      3  H   UNL     1       6.747   7.989   6.242  0.00  0.00    +0.000 HD
ENDROOT
BRANCH   1   4
ATOM      4  C   UNL     1       5.566   7.312   4.581  0.00  0.00    +0.000 C 
ATOM      5  H   UNL     1       4.956   6.795   5.332  0.00  0.00    +0.000 HD
ATOM      6  H   UNL     1       5.732   6.600   3.763  0.00  0.00    +0.000 HD
BRANCH   4   7
ATOM      7  C   UNL     1       4.797   8.523   4.046  0.00  0.00    +0.000 C 
ATOM      8  H   UNL     1       4.078   8.863   4.800  0.00  0.00    +0.000 HD
ATOM      9  H   UNL     1       5.496   9.348   3.868  0.00  0.00    +0.000 HD
BRANCH   7  10
ATOM     10  C   UNL     1       4.061   8.181   2.748  0.00  0.00    +0.000 C 
ATOM     11  H   UNL     1       4.754   7.713   2.040  0.00  0.00    +0.000 HD
ATOM     12  H   UNL     1       3.268   7.452   2.956  0.00  0.00    +0.000 HD
BRANCH  10  13
ATOM     13  C   UNL     1       3.451   9.433   2.110  0.00  0.00    +0.000 C 
ATOM     14  H   UNL     1       3.410  10.238   2.856  0.00  0.00    +0.000 HD
ATOM     15  H   UNL     1       2.413   9.221   1.824  0.00  0.00    +0.000 HD
BRANCH  13  16
ATOM     16  C   UNL     1       4.227   9.912   0.887  0.00  0.00    +0.000 C 
ATOM     17  H   UNL     1       5.306   9.854   1.067  0.00  0.00    +0.000 HD
ATOM     18  H   UNL     1       3.988   9.293   0.017  0.00  0.00    +0.000 HD
BRANCH  16  20
ATOM     19  O   UNL     1       2.767  11.816   0.658  0.00  0.00    +0.000 OA
ATOM     20  C   UNL     1       3.891  11.339   0.537  0.00  0.00    +0.000 C 
ATOM     21  H   UNL     1       4.732  11.949   0.166  0.00  0.00    +0.000 HD
ENDBRANCH  16  20
ENDBRANCH  13  16
ENDBRANCH  10  13
ENDBRANCH   7  10
ENDBRANCH   4   7
ENDBRANCH   1   4
BRANCH   1  22
ATOM     22  C   UNL     1       7.706   8.777   4.489  0.00  0.00    +0.000 C 
ATOM     23  H   UNL     1       7.043   9.295   3.787  0.00  0.00    +0.000 HD
ATOM     24  H   UNL     1       8.501   8.315   3.890  0.00  0.00    +0.000 HD
BRANCH  22  25
ATOM     25  C   UNL     1       8.322   9.800   5.447  0.00  0.00    +0.000 C 
ATOM     26  H   UNL     1       9.416   9.747   5.377  0.00  0.00    +0.000 HD
ATOM     27  H   UNL     1       8.031  10.809   5.130  0.00  0.00    +0.000 HD
BRANCH  25  28
ATOM     28  C   UNL     1       7.903   9.592   6.906  0.00  0.00    +0.000 C 
ATOM     29  H   UNL     1       7.207   8.746   6.962  0.00  0.00    +0.000 HD
ATOM     30  H   UNL     1       7.352  10.477   7.248  0.00  0.00    +0.000 HD
BRANCH  28  31
ATOM     31  C   UNL     1       9.082   9.339   7.845  0.00  0.00    +0.000 C 
ATOM     32  H   UNL     1       8.981   9.958   8.744  0.00  0.00    +0.000 HD
ATOM     33  H   UNL     1      10.018   9.630   7.352  0.00  0.00    +0.000 HD
BRANCH  31  34
ATOM     34  C   UNL     1       9.162   7.875   8.252  0.00  0.00    +0.000 C 
ATOM     35  H   UNL     1       9.930   7.722   9.016  0.00  0.00    +0.000 HD
ATOM     36  H   UNL     1       9.400   7.241   7.393  0.00  0.00    +0.000 HD
ATOM     37  H   UNL     1       8.203   7.543   8.663  0.00  0.00    +0.000 HD
ENDBRANCH  31  34
ENDBRANCH  28  31
ENDBRANCH  25  28
ENDBRANCH  22  25
ENDBRANCH   1  22
TORSDOF 11
ENDMDL
MODEL 3
REMARK VINA RESULT:    -4.603      1.065      1.514
REMARK INTER + INTRA:          -8.081
REMARK INTER:                  -7.259
REMARK INTRA:                  -0.822
REMARK UNBOUND:                -0.653
REMARK  Name = 8194
REMARK  11 active torsions:
REMARK  status: ('A' for Active; 'I' for Inactive)
REMARK    1  A    between atoms: C_2  and  C_3
REMARK    2  A    between atoms: C_2  and  C_4
REMARK    3  A    between atoms: C_3  and  C_5
REMARK    4  A    between atoms: C_4  and  C_6
REMARK    5  A    between atoms: C_5  and  C_7
REMARK    6  A    between atoms: C_6  and  C_8
REMARK    7  A    between atoms: C_7  and  C_9
REMARK    8  A    between atoms: C_8  and  C_10
REMARK    9  A    between atoms: C_9  and  C_11
REMARK   10  A    between atoms: C_10  and  C_12
REMARK   11  A    between atoms: C_11  and  C_13
REMARK                            x       y       z     vdW  Elec       q    Type
REMARK                         _______ _______ _______ _____ _____    ______ ____
ROOT
ATOM      1  C   UNL     1      -2.568  10.086 -10.523  0.00  0.00    +0.000 C 
ATOM      2  H   UNL     1      -2.999   9.351 -11.213  0.00  0.00    +0.000 HD
ATOM      3  H   UNL     1      -2.981  11.061 -10.812  0.00  0.00    +0.000 HD
ENDROOT
BRANCH   1   4
ATOM      4  C   UNL     1      -1.051  10.123 -10.728  0.00  0.00    +0.000 C 
ATOM      5  H   UNL     1      -0.558   9.917  -9.769  0.00  0.00    +0.000 HD
ATOM      6  H   UNL     1      -0.757  11.138 -11.022  0.00  0.00    +0.000 HD
BRANCH   4   7
ATOM      7  C   UNL     1      -0.553   9.130 -11.780  0.00  0.00    +0.000 C 
ATOM      8  H   UNL     1       0.439   8.761 -11.497  0.00  0.00    +0.000 HD
ATOM      9  H   UNL     1      -1.225   8.264 -11.810  0.00  0.00    +0.000 HD
BRANCH   7  10
ATOM     10  C   UNL     1      -0.488   9.778 -13.166  0.00  0.00    +0.000 C 
ATOM     11  H   UNL     1      -1.432  10.292 -13.380  0.00  0.00    +0.000 HD
ATOM     12  H   UNL     1       0.305  10.535 -13.180  0.00  0.00    +0.000 HD
BRANCH  10  13
ATOM     13  C   UNL     1      -0.219   8.734 -14.254  0.00  0.00    +0.000 C 
ATOM     14  H   UNL     1      -1.174   8.403 -14.683  0.00  0.00    +0.000 HD
ATOM     15  H   UNL     1       0.239   7.848 -13.796  0.00  0.00    +0.000 HD
BRANCH  13  16
ATOM     16  C   UNL     1       0.685   9.257 -15.366  0.00  0.00    +0.000 C 
ATOM     17  H   UNL     1       1.599   8.659 -15.434  0.00  0.00    +0.000 HD
ATOM     18  H   UNL     1       0.169   9.212 -16.330  0.00  0.00    +0.000 HD
BRANCH  16  20
ATOM     19  O   UNL     1       1.655  11.379 -15.972  0.00  0.00    +0.000 OA
ATOM     20  C   UNL     1       1.085  10.691 -15.130  0.00  0.00    +0.000 C 
ATOM     21  H   UNL     1       0.823  11.103 -14.141  0.00  0.00    +0.000 HD
ENDBRANCH  16  20
ENDBRANCH  13  16
ENDBRANCH  10  13
ENDBRANCH   7  10
ENDBRANCH   4   7
ENDBRANCH   1   4
BRANCH   1  22
ATOM     22  C   UNL     1      -3.041   9.763  -9.101  0.00  0.00    +0.000 C 
ATOM     23  H   UNL     1      -4.117   9.957  -9.028  0.00  0.00    +0.000 HD
ATOM     24  H   UNL     1      -2.548  10.446  -8.398  0.00  0.00    +0.000 HD
BRANCH  22  25
ATOM     25  C   UNL     1      -2.762   8.317  -8.685  0.00  0.00    +0.000 C 
ATOM     26  H   UNL     1      -1.701   8.091  -8.854  0.00  0.00    +0.000 HD
ATOM     27  H   UNL     1      -2.941   8.213  -7.608  0.00  0.00    +0.000 HD
BRANCH  25  28
ATOM     28  C   UNL     1      -3.619   7.294  -9.437  0.00  0.00    +0.000 C 
ATOM     29  H   UNL     1      -4.509   7.796  -9.834  0.00  0.00    +0.000 HD
ATOM     30  H   UNL     1      -3.974   6.536  -8.728  0.00  0.00    +0.000 HD
BRANCH  28  31
ATOM     31  C   UNL     1      -2.875   6.604 -10.581  0.00  0.00    +0.000 C 
ATOM     32  H   UNL     1      -2.863   5.520 -10.416  0.00  0.00    +0.000 HD
ATOM     33  H   UNL     1      -1.831   6.942 -10.601  0.00  0.00    +0.000 HD
BRANCH  31  34
ATOM     34  C   UNL     1      -3.526   6.899 -11.924  0.00  0.00    +0.000 C 
ATOM     35  H   UNL     1      -3.171   7.851 -12.330  0.00  0.00    +0.000 HD
ATOM     36  H   UNL     1      -4.615   6.951 -11.829  0.00  0.00    +0.000 HD
ATOM     37  H   UNL     1      -3.285   6.111 -12.643  0.00  0.00    +0.000 HD
ENDBRANCH  31  34
ENDBRANCH  28  31
ENDBRANCH  25  28
ENDBRANCH  22  25
ENDBRANCH   1  22
TORSDOF 11
ENDMDL
MODEL 4
REMARK VINA RESULT:    -4.518      2.491      3.903
REMARK INTER + INTRA:          -7.945
REMARK INTER:                  -6.802
REMARK INTRA:                  -1.143
REMARK UNBOUND:                -0.653
REMARK  Name = 8194
REMARK  11 active torsions:
REMARK  status: ('A' for Active; 'I' for Inactive)
REMARK    1  A    between atoms: C_2  and  C_3
REMARK    2  A    between atoms: C_2  and  C_4
REMARK    3  A    between atoms: C_3  and  C_5
REMARK    4  A    between atoms: C_4  and  C_6
REMARK    5  A    between atoms: C_5  and  C_7
REMARK    6  A    between atoms: C_6  and  C_8
REMARK    7  A    between atoms: C_7  and  C_9
REMARK    8  A    between atoms: C_8  and  C_10
REMARK    9  A    between atoms: C_9  and  C_11
REMARK   10  A    between atoms: C_10  and  C_12
REMARK   11  A    between atoms: C_11  and  C_13
REMARK                            x       y       z     vdW  Elec       q    Type
REMARK                         _______ _______ _______ _____ _____    ______ ____
ROOT
ATOM      1  C   UNL     1      -1.412  10.183 -11.414  0.00  0.00    +0.000 C 
ATOM      2  H   UNL     1      -1.575  11.203 -11.781  0.00  0.00    +0.000 HD
ATOM      3  H   UNL     1      -0.505  10.217 -10.797  0.00  0.00    +0.000 HD
ENDROOT
BRANCH   1   4
ATOM      4  C   UNL     1      -1.148   9.265 -12.612  0.00  0.00    +0.000 C 
ATOM      5  H   UNL     1      -0.430   9.754 -13.282  0.00  0.00    +0.000 HD
ATOM      6  H   UNL     1      -2.079   9.146 -13.179  0.00  0.00    +0.000 HD
BRANCH   4   7
ATOM      7  C   UNL     1      -0.619   7.884 -12.217  0.00  0.00    +0.000 C 
ATOM      8  H   UNL     1       0.299   7.670 -12.776  0.00  0.00    +0.000 HD
ATOM      9  H   UNL     1      -0.358   7.886 -11.152  0.00  0.00    +0.000 HD
BRANCH   7  10
ATOM     10  C   UNL     1      -1.658   6.794 -12.491  0.00  0.00    +0.000 C 
ATOM     11  H   UNL     1      -1.197   5.806 -12.383  0.00  0.00    +0.000 HD
ATOM     12  H   UNL     1      -2.464   6.860 -11.751  0.00  0.00    +0.000 HD
BRANCH  10  13
ATOM     13  C   UNL     1      -2.244   6.930 -13.900  0.00  0.00    +0.000 C 
ATOM     14  H   UNL     1      -1.728   6.235 -14.576  0.00  0.00    +0.000 HD
ATOM     15  H   UNL     1      -2.041   7.940 -14.278  0.00  0.00    +0.000 HD
BRANCH  13  16
ATOM     16  C   UNL     1      -3.745   6.663 -13.945  0.00  0.00    +0.000 C 
ATOM     17  H   UNL     1      -4.227   7.291 -14.702  0.00  0.00    +0.000 HD
ATOM     18  H   UNL     1      -3.940   5.615 -14.191  0.00  0.00    +0.000 HD
BRANCH  16  20
ATOM     19  O   UNL     1      -5.013   7.986 -12.379  0.00  0.00    +0.000 OA
ATOM     20  C   UNL     1      -4.402   6.949 -12.618  0.00  0.00    +0.000 C 
ATOM     21  H   UNL     1      -4.311   6.153 -11.860  0.00  0.00    +0.000 HD
ENDBRANCH  16  20
ENDBRANCH  13  16
ENDBRANCH  10  13
ENDBRANCH   7  10
ENDBRANCH   4   7
ENDBRANCH   1   4
BRANCH   1  22
ATOM     22  C   UNL     1      -2.591   9.787 -10.518  0.00  0.00    +0.000 C 
ATOM     23  H   UNL     1      -3.131   8.955 -10.984  0.00  0.00    +0.000 HD
ATOM     24  H   UNL     1      -3.294  10.628 -10.462  0.00  0.00    +0.000 HD
BRANCH  22  25
ATOM     25  C   UNL     1      -2.168   9.384  -9.104  0.00  0.00    +0.000 C 
ATOM     26  H   UNL     1      -1.170   8.928  -9.142  0.00  0.00    +0.000 HD
ATOM     27  H   UNL     1      -2.082  10.285  -8.484  0.00  0.00    +0.000 HD
BRANCH  25  28
ATOM     28  C   UNL     1      -3.141   8.406  -8.436  0.00  0.00    +0.000 C 
ATOM     29  H   UNL     1      -4.137   8.862  -8.400  0.00  0.00    +0.000 HD
ATOM     30  H   UNL     1      -2.828   8.246  -7.397  0.00  0.00    +0.000 HD
BRANCH  28  31
ATOM     31  C   UNL     1      -3.228   7.056  -9.149  0.00  0.00    +0.000 C 
ATOM     32  H   UNL     1      -2.442   6.389  -8.777  0.00  0.00    +0.000 HD
ATOM     33  H   UNL     1      -3.058   7.193 -10.224  0.00  0.00    +0.000 HD
BRANCH  31  34
ATOM     34  C   UNL     1      -4.584   6.402  -8.933  0.00  0.00    +0.000 C 
ATOM     35  H   UNL     1      -5.190   6.979  -8.227  0.00  0.00    +0.000 HD
ATOM     36  H   UNL     1      -4.472   5.387  -8.540  0.00  0.00    +0.000 HD
ATOM     37  H   UNL     1      -5.130   6.342  -9.879  0.00  0.00    +0.000 HD
ENDBRANCH  31  34
ENDBRANCH  28  31
ENDBRANCH  25  28
ENDBRANCH  22  25
ENDBRANCH   1  22
TORSDOF 11
ENDMDL
MODEL 5
REMARK VINA RESULT:    -4.398      9.881     12.065
REMARK INTER + INTRA:          -7.751
REMARK INTER:                  -6.558
REMARK INTRA:                  -1.193
REMARK UNBOUND:                -0.653
REMARK  Name = 8194
REMARK  11 active torsions:
REMARK  status: ('A' for Active; 'I' for Inactive)
REMARK    1  A    between atoms: C_2  and  C_3
REMARK    2  A    between atoms: C_2  and  C_4
REMARK    3  A    between atoms: C_3  and  C_5
REMARK    4  A    between atoms: C_4  and  C_6
REMARK    5  A    between atoms: C_5  and  C_7
REMARK    6  A    between atoms: C_6  and  C_8
REMARK    7  A    between atoms: C_7  and  C_9
REMARK    8  A    between atoms: C_8  and  C_10
REMARK    9  A    between atoms: C_9  and  C_11
REMARK   10  A    between atoms: C_10  and  C_12
REMARK   11  A    between atoms: C_11  and  C_13
REMARK                            x       y       z     vdW  Elec       q    Type
REMARK                         _______ _______ _______ _____ _____    ______ ____
ROOT
ATOM      1  C   UNL     1      -9.533   7.742  -7.992  0.00  0.00    +0.000 C 
ATOM      2  H   UNL     1      -8.655   8.386  -7.866  0.00  0.00    +0.000 HD
ATOM      3  H   UNL     1      -9.703   7.657  -9.072  0.00  0.00    +0.000 HD
ENDROOT
BRANCH   1   4
ATOM      4  C   UNL     1     -10.746   8.436  -7.364  0.00  0.00    +0.000 C 
ATOM      5  H   UNL     1     -11.595   7.739  -7.367  0.00  0.00    +0.000 HD
ATOM      6  H   UNL     1     -11.034   9.286  -7.994  0.00  0.00    +0.000 HD
BRANCH   4   7
ATOM      7  C   UNL     1     -10.496   8.928  -5.937  0.00  0.00    +0.000 C 
ATOM      8  H   UNL     1      -9.437   8.800  -5.685  0.00  0.00    +0.000 HD
ATOM      9  H   UNL     1     -10.717  10.000  -5.877  0.00  0.00    +0.000 HD
BRANCH   7  10
ATOM     10  C   UNL     1     -11.363   8.167  -4.930  0.00  0.00    +0.000 C 
ATOM     11  H   UNL     1     -10.725   7.588  -4.252  0.00  0.00    +0.000 HD
ATOM     12  H   UNL     1     -11.925   8.880  -4.316  0.00  0.00    +0.000 HD
BRANCH  10  13
ATOM     13  C   UNL     1     -12.337   7.222  -5.640  0.00  0.00    +0.000 C 
ATOM     14  H   UNL     1     -12.204   7.312  -6.726  0.00  0.00    +0.000 HD
ATOM     15  H   UNL     1     -13.366   7.540  -5.426  0.00  0.00    +0.000 HD
BRANCH  13  16
ATOM     16  C   UNL     1     -12.159   5.765  -5.224  0.00  0.00    +0.000 C 
ATOM     17  H   UNL     1     -11.468   5.252  -5.901  0.00  0.00    +0.000 HD
ATOM     18  H   UNL     1     -11.755   5.705  -4.208  0.00  0.00    +0.000 HD
BRANCH  16  20
ATOM     19  O   UNL     1     -14.170   4.908  -6.238  0.00  0.00    +0.000 OA
ATOM     20  C   UNL     1     -13.467   5.016  -5.238  0.00  0.00    +0.000 C 
ATOM     21  H   UNL     1     -13.759   4.551  -4.282  0.00  0.00    +0.000 HD
ENDBRANCH  16  20
ENDBRANCH  13  16
ENDBRANCH  10  13
ENDBRANCH   7  10
ENDBRANCH   4   7
ENDBRANCH   1   4
BRANCH   1  22
ATOM     22  C   UNL     1      -9.205   6.349  -7.443  0.00  0.00    +0.000 C 
ATOM     23  H   UNL     1      -8.983   5.677  -8.280  0.00  0.00    +0.000 HD
ATOM     24  H   UNL     1     -10.094   5.945  -6.941  0.00  0.00    +0.000 HD
BRANCH  22  25
ATOM     25  C   UNL     1      -8.025   6.344  -6.469  0.00  0.00    +0.000 C 
ATOM     26  H   UNL     1      -7.259   5.648  -6.832  0.00  0.00    +0.000 HD
ATOM     27  H   UNL     1      -7.568   7.341  -6.455  0.00  0.00    +0.000 HD
BRANCH  25  28
ATOM     28  C   UNL     1      -8.420   5.953  -5.040  0.00  0.00    +0.000 C 
ATOM     29  H   UNL     1      -9.501   6.092  -4.917  0.00  0.00    +0.000 HD
ATOM     30  H   UNL     1      -7.931   6.638  -4.336  0.00  0.00    +0.000 HD
BRANCH  28  31
ATOM     31  C   UNL     1      -8.051   4.514  -4.682  0.00  0.00    +0.000 C 
ATOM     32  H   UNL     1      -7.738   4.460  -3.633  0.00  0.00    +0.000 HD
ATOM     33  H   UNL     1      -7.201   4.186  -5.293  0.00  0.00    +0.000 HD
BRANCH  31  34
ATOM     34  C   UNL     1      -9.224   3.570  -4.904  0.00  0.00    +0.000 C 
ATOM     35  H   UNL     1      -8.916   2.527  -4.780  0.00  0.00    +0.000 HD
ATOM     36  H   UNL     1      -9.638   3.689  -5.910  0.00  0.00    +0.000 HD
ATOM     37  H   UNL     1     -10.019   3.778  -4.182  0.00  0.00    +0.000 HD
ENDBRANCH  31  34
ENDBRANCH  28  31
ENDBRANCH  25  28
ENDBRANCH  22  25
ENDBRANCH   1  22
TORSDOF 11
ENDMDL
MODEL 6
REMARK VINA RESULT:    -4.383     16.934     18.989
REMARK INTER + INTRA:          -7.727
REMARK INTER:                  -7.264
REMARK INTRA:                  -0.463
REMARK UNBOUND:                -0.653
REMARK  Name = 8194
REMARK  11 active torsions:
REMARK  status: ('A' for Active; 'I' for Inactive)
REMARK    1  A    between atoms: C_2  and  C_3
REMARK    2  A    between atoms: C_2  and  C_4
REMARK    3  A    between atoms: C_3  and  C_5
REMARK    4  A    between atoms: C_4  and  C_6
REMARK    5  A    between atoms: C_5  and  C_7
REMARK    6  A    between atoms: C_6  and  C_8
REMARK    7  A    between atoms: C_7  and  C_9
REMARK    8  A    between atoms: C_8  and  C_10
REMARK    9  A    between atoms: C_9  and  C_11
REMARK   10  A    between atoms: C_10  and  C_12
REMARK   11  A    between atoms: C_11  and  C_13
REMARK                            x       y       z     vdW  Elec       q    Type
REMARK                         _______ _______ _______ _____ _____    ______ ____
ROOT
ATOM      1  C   UNL     1       7.699   8.520   5.588  0.00  0.00    +0.000 C 
ATOM      2  H   UNL     1       8.702   8.751   5.209  0.00  0.00    +0.000 HD
ATOM      3  H   UNL     1       7.819   7.693   6.299  0.00  0.00    +0.000 HD
ENDROOT
BRANCH   1   4
ATOM      4  C   UNL     1       6.833   8.034   4.422  0.00  0.00    +0.000 C 
ATOM      5  H   UNL     1       6.837   6.937   4.410  0.00  0.00    +0.000 HD
ATOM      6  H   UNL     1       7.290   8.361   3.480  0.00  0.00    +0.000 HD
BRANCH   4   7
ATOM      7  C   UNL     1       5.389   8.537   4.483  0.00  0.00    +0.000 C 
ATOM      8  H   UNL     1       4.943   8.257   5.444  0.00  0.00    +0.000 HD
ATOM      9  H   UNL     1       5.383   9.632   4.429  0.00  0.00    +0.000 HD
BRANCH   7  10
ATOM     10  C   UNL     1       4.553   7.960   3.338  0.00  0.00    +0.000 C 
ATOM     11  H   UNL     1       5.211   7.482   2.602  0.00  0.00    +0.000 HD
ATOM     12  H   UNL     1       3.883   7.186   3.726  0.00  0.00    +0.000 HD
BRANCH  10  13
ATOM     13  C   UNL     1       3.730   9.052   2.648  0.00  0.00    +0.000 C 
ATOM     14  H   UNL     1       3.493   9.842   3.373  0.00  0.00    +0.000 HD
ATOM     15  H   UNL     1       2.770   8.628   2.326  0.00  0.00    +0.000 HD
BRANCH  13  16
ATOM     16  C   UNL     1       4.444   9.663   1.446  0.00  0.00    +0.000 C 
ATOM     17  H   UNL     1       5.328  10.225   1.766  0.00  0.00    +0.000 HD
ATOM     18  H   UNL     1       4.766   8.878   0.754  0.00  0.00    +0.000 HD
BRANCH  16  20
ATOM     19  O   UNL     1       3.222  11.711   1.098  0.00  0.00    +0.000 OA
ATOM     20  C   UNL     1       3.547  10.603   0.682  0.00  0.00    +0.000 C 
ATOM     21  H   UNL     1       3.199  10.238  -0.298  0.00  0.00    +0.000 HD
ENDBRANCH  16  20
ENDBRANCH  13  16
ENDBRANCH  10  13
ENDBRANCH   7  10
ENDBRANCH   4   7
ENDBRANCH   1   4
BRANCH   1  22
ATOM     22  C   UNL     1       7.167   9.740   6.349  0.00  0.00    +0.000 C 
ATOM     23  H   UNL     1       6.717   9.406   7.291  0.00  0.00    +0.000 HD
ATOM     24  H   UNL     1       6.365  10.204   5.762  0.00  0.00    +0.000 HD
BRANCH  22  25
ATOM     25  C   UNL     1       8.246  10.783   6.650  0.00  0.00    +0.000 C 
ATOM     26  H   UNL     1       7.786  11.779   6.682  0.00  0.00    +0.000 HD
ATOM     27  H   UNL     1       8.661  10.592   7.647  0.00  0.00    +0.000 HD
BRANCH  25  28
ATOM     28  C   UNL     1       9.385  10.790   5.625  0.00  0.00    +0.000 C 
ATOM     29  H   UNL     1       9.125  11.473   4.807  0.00  0.00    +0.000 HD
ATOM     30  H   UNL     1       9.474   9.789   5.185  0.00  0.00    +0.000 HD
BRANCH  28  31
ATOM     31  C   UNL     1      10.732  11.201   6.219  0.00  0.00    +0.000 C 
ATOM     32  H   UNL     1      11.129  10.388   6.837  0.00  0.00    +0.000 HD
ATOM     33  H   UNL     1      10.599  12.072   6.873  0.00  0.00    +0.000 HD
BRANCH  31  34
ATOM     34  C   UNL     1      11.738  11.539   5.129  0.00  0.00    +0.000 C 
ATOM     35  H   UNL     1      11.684  10.818   4.308  0.00  0.00    +0.000 HD
ATOM     36  H   UNL     1      12.759  11.536   5.523  0.00  0.00    +0.000 HD
ATOM     37  H   UNL     1      11.534  12.534   4.721  0.00  0.00    +0.000 HD
ENDBRANCH  31  34
ENDBRANCH  28  31
ENDBRANCH  25  28
ENDBRANCH  22  25
ENDBRANCH   1  22
TORSDOF 11
ENDMDL
MODEL 7
REMARK VINA RESULT:    -4.357     19.125     22.107
REMARK INTER + INTRA:          -7.684
REMARK INTER:                  -6.859
REMARK INTRA:                  -0.826
REMARK UNBOUND:                -0.653
REMARK  Name = 8194
REMARK  11 active torsions:
REMARK  status: ('A' for Active; 'I' for Inactive)
REMARK    1  A    between atoms: C_2  and  C_3
REMARK    2  A    between atoms: C_2  and  C_4
REMARK    3  A    between atoms: C_3  and  C_5
REMARK    4  A    between atoms: C_4  and  C_6
REMARK    5  A    between atoms: C_5  and  C_7
REMARK    6  A    between atoms: C_6  and  C_8
REMARK    7  A    between atoms: C_7  and  C_9
REMARK    8  A    between atoms: C_8  and  C_10
REMARK    9  A    between atoms: C_9  and  C_11
REMARK   10  A    between atoms: C_10  and  C_12
REMARK   11  A    between atoms: C_11  and  C_13
REMARK                            x       y       z     vdW  Elec       q    Type
REMARK                         _______ _______ _______ _____ _____    ______ ____
ROOT
ATOM      1  C   UNL     1      -9.106  11.602   7.972  0.00  0.00    +0.000 C 
ATOM      2  H   UNL     1      -9.647  12.483   8.338  0.00  0.00    +0.000 HD
ATOM      3  H   UNL     1      -9.603  10.729   8.414  0.00  0.00    +0.000 HD
ENDROOT
BRANCH   1   4
ATOM      4  C   UNL     1      -7.667  11.656   8.495  0.00  0.00    +0.000 C 
ATOM      5  H   UNL     1      -7.302  12.688   8.424  0.00  0.00    +0.000 HD
ATOM      6  H   UNL     1      -7.029  11.050   7.840  0.00  0.00    +0.000 HD
BRANCH   4   7
ATOM      7  C   UNL     1      -7.523  11.162   9.936  0.00  0.00    +0.000 C 
ATOM      8  H   UNL     1      -6.893  11.859  10.501  0.00  0.00    +0.000 HD
ATOM      9  H   UNL     1      -8.508  11.151  10.417  0.00  0.00    +0.000 HD
BRANCH   7  10
ATOM     10  C   UNL     1      -6.911   9.760   9.981  0.00  0.00    +0.000 C 
ATOM     11  H   UNL     1      -6.064   9.701   9.288  0.00  0.00    +0.000 HD
ATOM     12  H   UNL     1      -6.522   9.561  10.987  0.00  0.00    +0.000 HD
BRANCH  10  13
ATOM     13  C   UNL     1      -7.945   8.692   9.611  0.00  0.00    +0.000 C 
ATOM     14  H   UNL     1      -7.439   7.851   9.120  0.00  0.00    +0.000 HD
ATOM     15  H   UNL     1      -8.643   9.108   8.874  0.00  0.00    +0.000 HD
BRANCH  13  16
ATOM     16  C   UNL     1      -8.726   8.181  10.818  0.00  0.00    +0.000 C 
ATOM     17  H   UNL     1      -8.751   7.087  10.828  0.00  0.00    +0.000 HD
ATOM     18  H   UNL     1      -8.261   8.524  11.747  0.00  0.00    +0.000 HD
BRANCH  16  20
ATOM     19  O   UNL     1     -11.024   8.227  11.546  0.00  0.00    +0.000 OA
ATOM     20  C   UNL     1     -10.150   8.678  10.812  0.00  0.00    +0.000 C 
ATOM     21  H   UNL     1     -10.366   9.494  10.103  0.00  0.00    +0.000 HD
ENDBRANCH  16  20
ENDBRANCH  13  16
ENDBRANCH  10  13
ENDBRANCH   7  10
ENDBRANCH   4   7
ENDBRANCH   1   4
BRANCH   1  22
ATOM     22  C   UNL     1      -9.260  11.528   6.449  0.00  0.00    +0.000 C 
ATOM     23  H   UNL     1      -9.400  12.540   6.053  0.00  0.00    +0.000 HD
ATOM     24  H   UNL     1     -10.171  10.965   6.210  0.00  0.00    +0.000 HD
BRANCH  22  25
ATOM     25  C   UNL     1      -8.063  10.876   5.751  0.00  0.00    +0.000 C 
ATOM     26  H   UNL     1      -7.234  10.788   6.464  0.00  0.00    +0.000 HD
ATOM     27  H   UNL     1      -8.334   9.857   5.451  0.00  0.00    +0.000 HD
BRANCH  25  28
ATOM     28  C   UNL     1      -7.585  11.652   4.519  0.00  0.00    +0.000 C 
ATOM     29  H   UNL     1      -8.267  11.453   3.685  0.00  0.00    +0.000 HD
ATOM     30  H   UNL     1      -6.600  11.271   4.220  0.00  0.00    +0.000 HD
BRANCH  28  31
ATOM     31  C   UNL     1      -7.492  13.160   4.751  0.00  0.00    +0.000 C 
ATOM     32  H   UNL     1      -8.351  13.498   5.341  0.00  0.00    +0.000 HD
ATOM     33  H   UNL     1      -7.531  13.686   3.789  0.00  0.00    +0.000 HD
BRANCH  31  34
ATOM     34  C   UNL     1      -6.207  13.532   5.476  0.00  0.00    +0.000 C 
ATOM     35  H   UNL     1      -5.921  14.565   5.260  0.00  0.00    +0.000 HD
ATOM     36  H   UNL     1      -5.384  12.877   5.176  0.00  0.00    +0.000 HD
ATOM     37  H   UNL     1      -6.342  13.434   6.558  0.00  0.00    +0.000 HD
ENDBRANCH  31  34
ENDBRANCH  28  31
ENDBRANCH  25  28
ENDBRANCH  22  25
ENDBRANCH   1  22
TORSDOF 11
ENDMDL
MODEL 8
REMARK VINA RESULT:    -4.339      5.337      7.434
REMARK INTER + INTRA:          -7.656
REMARK INTER:                  -7.003
REMARK INTRA:                  -0.653
REMARK UNBOUND:                -0.653
REMARK  Name = 8194
REMARK  11 active torsions:
REMARK  status: ('A' for Active; 'I' for Inactive)
REMARK    1  A    between atoms: C_2  and  C_3
REMARK    2  A    between atoms: C_2  and  C_4
REMARK    3  A    between atoms: C_3  and  C_5
REMARK    4  A    between atoms: C_4  and  C_6
REMARK    5  A    between atoms: C_5  and  C_7
REMARK    6  A    between atoms: C_6  and  C_8
REMARK    7  A    between atoms: C_7  and  C_9
REMARK    8  A    between atoms: C_8  and  C_10
REMARK    9  A    between atoms: C_9  and  C_11
REMARK   10  A    between atoms: C_10  and  C_12
REMARK   11  A    between atoms: C_11  and  C_13
REMARK                            x       y       z     vdW  Elec       q    Type
REMARK                         _______ _______ _______ _____ _____    ______ ____
ROOT
ATOM      1  C   UNL     1      -8.872   6.095  -8.517  0.00  0.00    +0.000 C 
ATOM      2  H   UNL     1      -8.737   5.366  -7.708  0.00  0.00    +0.000 HD
ATOM      3  H   UNL     1      -9.685   5.711  -9.146  0.00  0.00    +0.000 HD
ENDROOT
BRANCH   1   4
ATOM      4  C   UNL     1      -7.592   6.142  -9.356  0.00  0.00    +0.000 C 
ATOM      5  H   UNL     1      -7.286   7.188  -9.479  0.00  0.00    +0.000 HD
ATOM      6  H   UNL     1      -7.811   5.757 -10.359  0.00  0.00    +0.000 HD
BRANCH   4   7
ATOM      7  C   UNL     1      -6.436   5.341  -8.751  0.00  0.00    +0.000 C 
ATOM      8  H   UNL     1      -6.713   4.999  -7.747  0.00  0.00    +0.000 HD
ATOM      9  H   UNL     1      -6.254   4.448  -9.359  0.00  0.00    +0.000 HD
BRANCH   7  10
ATOM     10  C   UNL     1      -5.159   6.183  -8.677  0.00  0.00    +0.000 C 
ATOM     11  H   UNL     1      -5.352   7.102  -8.111  0.00  0.00    +0.000 HD
ATOM     12  H   UNL     1      -4.383   5.627  -8.139  0.00  0.00    +0.000 HD
BRANCH  10  13
ATOM     13  C   UNL     1      -4.653   6.545 -10.076  0.00  0.00    +0.000 C 
ATOM     14  H   UNL     1      -5.323   7.291 -10.523  0.00  0.00    +0.000 HD
ATOM     15  H   UNL     1      -4.705   5.657 -10.718  0.00  0.00    +0.000 HD
BRANCH  13  16
ATOM     16  C   UNL     1      -3.226   7.083 -10.068  0.00  0.00    +0.000 C 
ATOM     17  H   UNL     1      -2.505   6.266  -9.958  0.00  0.00    +0.000 HD
ATOM     18  H   UNL     1      -3.010   7.609 -11.004  0.00  0.00    +0.000 HD
BRANCH  16  20
ATOM     19  O   UNL     1      -2.522   9.174  -9.096  0.00  0.00    +0.000 OA
ATOM     20  C   UNL     1      -3.002   8.055  -8.938  0.00  0.00    +0.000 C 
ATOM     21  H   UNL     1      -3.310   7.703  -7.939  0.00  0.00    +0.000 HD
ENDBRANCH  16  20
ENDBRANCH  13  16
ENDBRANCH  10  13
ENDBRANCH   7  10
ENDBRANCH   4   7
ENDBRANCH   1   4
BRANCH   1  22
ATOM     22  C   UNL     1      -9.319   7.429  -7.908  0.00  0.00    +0.000 C 
ATOM     23  H   UNL     1     -10.353   7.632  -8.212  0.00  0.00    +0.000 HD
ATOM     24  H   UNL     1      -8.703   8.235  -8.325  0.00  0.00    +0.000 HD
BRANCH  22  25
ATOM     25  C   UNL     1      -9.229   7.458  -6.381  0.00  0.00    +0.000 C 
ATOM     26  H   UNL     1      -8.763   8.399  -6.064  0.00  0.00    +0.000 HD
ATOM     27  H   UNL     1     -10.242   7.448  -5.961  0.00  0.00    +0.000 HD
BRANCH  25  28
ATOM     28  C   UNL     1      -8.433   6.285  -5.798  0.00  0.00    +0.000 C 
ATOM     29  H   UNL     1      -7.684   6.674  -5.098  0.00  0.00    +0.000 HD
ATOM     30  H   UNL     1      -7.882   5.791  -6.609  0.00  0.00    +0.000 HD
BRANCH  28  31
ATOM     31  C   UNL     1      -9.307   5.255  -5.083  0.00  0.00    +0.000 C 
ATOM     32  H   UNL     1     -10.239   5.107  -5.641  0.00  0.00    +0.000 HD
ATOM     33  H   UNL     1      -9.579   5.627  -4.087  0.00  0.00    +0.000 HD
BRANCH  31  34
ATOM     34  C   UNL     1      -8.590   3.920  -4.944  0.00  0.00    +0.000 C 
ATOM     35  H   UNL     1      -8.867   3.423  -4.009  0.00  0.00    +0.000 HD
ATOM     36  H   UNL     1      -7.504   4.056  -4.953  0.00  0.00    +0.000 HD
ATOM     37  H   UNL     1      -8.857   3.258  -5.773  0.00  0.00    +0.000 HD
ENDBRANCH  31  34
ENDBRANCH  28  31
ENDBRANCH  25  28
ENDBRANCH  22  25
ENDBRANCH   1  22
TORSDOF 11
ENDMDL
MODEL 9
REMARK VINA RESULT:    -4.310     18.620     20.896
REMARK INTER + INTRA:          -7.609
REMARK INTER:                  -6.519
REMARK INTRA:                  -1.090
REMARK UNBOUND:                -0.653
REMARK  Name = 8194
REMARK  11 active torsions:
REMARK  status: ('A' for Active; 'I' for Inactive)
REMARK    1  A    between atoms: C_2  and  C_3
REMARK    2  A    between atoms: C_2  and  C_4
REMARK    3  A    between atoms: C_3  and  C_5
REMARK    4  A    between atoms: C_4  and  C_6
REMARK    5  A    between atoms: C_5  and  C_7
REMARK    6  A    between atoms: C_6  and  C_8
REMARK    7  A    between atoms: C_7  and  C_9
REMARK    8  A    between atoms: C_8  and  C_10
REMARK    9  A    between atoms: C_9  and  C_11
REMARK   10  A    between atoms: C_10  and  C_12
REMARK   11  A    between atoms: C_11  and  C_13
REMARK                            x       y       z     vdW  Elec       q    Type
REMARK                         _______ _______ _______ _____ _____    ______ ____
ROOT
ATOM      1  C   UNL     1      -7.077  14.330   5.699  0.00  0.00    +0.000 C 
ATOM      2  H   UNL     1      -8.141  14.150   5.504  0.00  0.00    +0.000 HD
ATOM      3  H   UNL     1      -6.806  15.231   5.134  0.00  0.00    +0.000 HD
ENDROOT
BRANCH   1   4
ATOM      4  C   UNL     1      -6.269  13.152   5.147  0.00  0.00    +0.000 C 
ATOM      5  H   UNL     1      -5.537  12.838   5.903  0.00  0.00    +0.000 HD
ATOM      6  H   UNL     1      -5.695  13.492   4.276  0.00  0.00    +0.000 HD
BRANCH   4   7
ATOM      7  C   UNL     1      -7.133  11.954   4.746  0.00  0.00    +0.000 C 
ATOM      8  H   UNL     1      -6.852  11.620   3.740  0.00  0.00    +0.000 HD
ATOM      9  H   UNL     1      -6.940  11.120   5.431  0.00  0.00    +0.000 HD
BRANCH   7  10
ATOM     10  C   UNL     1      -8.621  12.312   4.776  0.00  0.00    +0.000 C 
ATOM     11  H   UNL     1      -8.750  13.339   5.136  0.00  0.00    +0.000 HD
ATOM     12  H   UNL     1      -9.029  12.270   3.759  0.00  0.00    +0.000 HD
BRANCH  10  13
ATOM     13  C   UNL     1      -9.403  11.354   5.681  0.00  0.00    +0.000 C 
ATOM     14  H   UNL     1      -9.952  10.635   5.061  0.00  0.00    +0.000 HD
ATOM     15  H   UNL     1     -10.158  11.924   6.238  0.00  0.00    +0.000 HD
BRANCH  13  16
ATOM     16  C   UNL     1      -8.507  10.603   6.661  0.00  0.00    +0.000 C 
ATOM     17  H   UNL     1      -7.811   9.950   6.126  0.00  0.00    +0.000 HD
ATOM     18  H   UNL     1      -7.926  11.308   7.264  0.00  0.00    +0.000 HD
BRANCH  16  20
ATOM     19  O   UNL     1     -10.423   9.307   7.339  0.00  0.00    +0.000 OA
ATOM     20  C   UNL     1      -9.311   9.749   7.608  0.00  0.00    +0.000 C 
ATOM     21  H   UNL     1      -8.829   9.528   8.576  0.00  0.00    +0.000 HD
ENDBRANCH  16  20
ENDBRANCH  13  16
ENDBRANCH  10  13
ENDBRANCH   7  10
ENDBRANCH   4   7
ENDBRANCH   1   4
BRANCH   1  22
ATOM     22  C   UNL     1      -6.893  14.623   7.193  0.00  0.00    +0.000 C 
ATOM     23  H   UNL     1      -7.878  14.722   7.662  0.00  0.00    +0.000 HD
ATOM     24  H   UNL     1      -6.389  15.591   7.307  0.00  0.00    +0.000 HD
BRANCH  22  25
ATOM     25  C   UNL     1      -6.093  13.544   7.927  0.00  0.00    +0.000 C 
ATOM     26  H   UNL     1      -5.730  12.806   7.200  0.00  0.00    +0.000 HD
ATOM     27  H   UNL     1      -5.207  14.002   8.384  0.00  0.00    +0.000 HD
BRANCH  25  28
ATOM     28  C   UNL     1      -6.901  12.823   9.011  0.00  0.00    +0.000 C 
ATOM     29  H   UNL     1      -7.617  12.145   8.532  0.00  0.00    +0.000 HD
ATOM     30  H   UNL     1      -7.490  13.563   9.568  0.00  0.00    +0.000 HD
BRANCH  28  31
ATOM     31  C   UNL     1      -6.032  12.032   9.989  0.00  0.00    +0.000 C 
ATOM     32  H   UNL     1      -6.082  12.489  10.984  0.00  0.00    +0.000 HD
ATOM     33  H   UNL     1      -4.984  12.068   9.666  0.00  0.00    +0.000 HD
BRANCH  31  34
ATOM     34  C   UNL     1      -6.481  10.581  10.081  0.00  0.00    +0.000 C 
ATOM     35  H   UNL     1      -5.622   9.904  10.071  0.00  0.00    +0.000 HD
ATOM     36  H   UNL     1      -7.136  10.320   9.244  0.00  0.00    +0.000 HD
ATOM     37  H   UNL     1      -7.035  10.415  11.010  0.00  0.00    +0.000 HD
ENDBRANCH  31  34
ENDBRANCH  28  31
ENDBRANCH  25  28
ENDBRANCH  22  25
ENDBRANCH   1  22
TORSDOF 11
ENDMDL
MODEL 10
REMARK VINA RESULT:    -4.179     17.611     19.279
REMARK INTER + INTRA:          -7.398
REMARK INTER:                  -6.790
REMARK INTRA:                  -0.608
REMARK UNBOUND:                -0.653
REMARK  Name = 8194
REMARK  11 active torsions:
REMARK  status: ('A' for Active; 'I' for Inactive)
REMARK    1  A    between atoms: C_2  and  C_3
REMARK    2  A    between atoms: C_2  and  C_4
REMARK    3  A    between atoms: C_3  and  C_5
REMARK    4  A    between atoms: C_4  and  C_6
REMARK    5  A    between atoms: C_5  and  C_7
REMARK    6  A    between atoms: C_6  and  C_8
REMARK    7  A    between atoms: C_7  and  C_9
REMARK    8  A    between atoms: C_8  and  C_10
REMARK    9  A    between atoms: C_9  and  C_11
REMARK   10  A    between atoms: C_10  and  C_12
REMARK   11  A    between atoms: C_11  and  C_13
REMARK                            x       y       z     vdW  Elec       q    Type
REMARK                         _______ _______ _______ _____ _____    ______ ____
ROOT
ATOM      1  C   UNL     1       6.332   8.521   5.234  0.00  0.00    +0.000 C 
ATOM      2  H   UNL     1       5.914   9.197   4.478  0.00  0.00    +0.000 HD
ATOM      3  H   UNL     1       5.688   8.610   6.118  0.00  0.00    +0.000 HD
ENDROOT
BRANCH   1   4
ATOM      4  C   UNL     1       7.736   9.008   5.608  0.00  0.00    +0.000 C 
ATOM      5  H   UNL     1       8.269   9.291   4.692  0.00  0.00    +0.000 HD
ATOM      6  H   UNL     1       8.293   8.175   6.053  0.00  0.00    +0.000 HD
BRANCH   4   7
ATOM      7  C   UNL     1       7.732  10.189   6.581  0.00  0.00    +0.000 C 
ATOM      8  H   UNL     1       6.895  10.856   6.347  0.00  0.00    +0.000 HD
ATOM      9  H   UNL     1       7.576   9.819   7.602  0.00  0.00    +0.000 HD
BRANCH   7  10
ATOM     10  C   UNL     1       9.049  10.967   6.511  0.00  0.00    +0.000 C 
ATOM     11  H   UNL     1       8.870  12.021   6.753  0.00  0.00    +0.000 HD
ATOM     12  H   UNL     1       9.747  10.576   7.260  0.00  0.00    +0.000 HD
BRANCH  10  13
ATOM     13  C   UNL     1       9.680  10.864   5.119  0.00  0.00    +0.000 C 
ATOM     14  H   UNL     1       8.956  11.204   4.366  0.00  0.00    +0.000 HD
ATOM     15  H   UNL     1       9.888   9.810   4.896  0.00  0.00    +0.000 HD
BRANCH  13  16
ATOM     16  C   UNL     1      10.966  11.674   4.991  0.00  0.00    +0.000 C 
ATOM     17  H   UNL     1      11.173  12.220   5.917  0.00  0.00    +0.000 HD
ATOM     18  H   UNL     1      11.814  11.014   4.782  0.00  0.00    +0.000 HD
BRANCH  16  20
ATOM     19  O   UNL     1      10.764  13.885   4.052  0.00  0.00    +0.000 OA
ATOM     20  C   UNL     1      10.884  12.678   3.869  0.00  0.00    +0.000 C 
ATOM     21  H   UNL     1      10.950  12.260   2.850  0.00  0.00    +0.000 HD
ENDBRANCH  16  20
ENDBRANCH  13  16
ENDBRANCH  10  13
ENDBRANCH   7  10
ENDBRANCH   4   7
ENDBRANCH   1   4
BRANCH   1  22
ATOM     22  C   UNL     1       6.243   7.083   4.712  0.00  0.00    +0.000 C 
ATOM     23  H   UNL     1       5.675   6.476   5.428  0.00  0.00    +0.000 HD
ATOM     24  H   UNL     1       7.253   6.656   4.667  0.00  0.00    +0.000 HD
BRANCH  22  25
ATOM     25  C   UNL     1       5.586   6.979   3.334  0.00  0.00    +0.000 C 
ATOM     26  H   UNL     1       5.494   5.921   3.056  0.00  0.00    +0.000 HD
ATOM     27  H   UNL     1       4.568   7.382   3.390  0.00  0.00    +0.000 HD
BRANCH  25  28
ATOM     28  C   UNL     1       6.359   7.719   2.237  0.00  0.00    +0.000 C 
ATOM     29  H   UNL     1       6.674   6.998   1.473  0.00  0.00    +0.000 HD
ATOM     30  H   UNL     1       7.275   8.141   2.669  0.00  0.00    +0.000 HD
BRANCH  28  31
ATOM     31  C   UNL     1       5.552   8.837   1.576  0.00  0.00    +0.000 C 
ATOM     32  H   UNL     1       5.525   8.684   0.491  0.00  0.00    +0.000 HD
ATOM     33  H   UNL     1       6.040   9.803   1.757  0.00  0.00    +0.000 HD
BRANCH  31  34
ATOM     34  C   UNL     1       4.129   8.883   2.111  0.00  0.00    +0.000 C 
ATOM     35  H   UNL     1       3.714   7.875   2.210  0.00  0.00    +0.000 HD
ATOM     36  H   UNL     1       3.478   9.459   1.446  0.00  0.00    +0.000 HD
ATOM     37  H   UNL     1       4.110   9.356   3.098  0.00  0.00    +0.000 HD
ENDBRANCH  31  34
ENDBRANCH  28  31
ENDBRANCH  25  28
ENDBRANCH  22  25
ENDBRANCH   1  22
TORSDOF 11
ENDMDL
