MODEL 1
REMARK VINA RESULT:    -5.443      0.000      0.000
REMARK INTER + INTRA:          -6.804
REMARK INTER:                  -6.532
REMARK INTRA:                  -0.272
REMARK UNBOUND:                -0.248
REMARK  Name = 8815
REMARK  4 active torsions:
REMARK  status: ('A' for Active; 'I' for Inactive)
REMARK    1  A    between atoms: O_1  and  C_6
REMARK    2  A    between atoms: O_1  and  C_10
REMARK    3  A    between atoms: C_2  and  C_3
REMARK    4  A    between atoms: C_3  and  C_9
REMARK                            x       y       z     vdW  Elec       q    Type
REMARK                         _______ _______ _______ _____ _____    ______ ____
ROOT
ATOM      1  C   UNL     1       5.382   8.200   2.371  0.00  0.00    +0.000 A 
ATOM      2  C   UNL     1       4.118   8.439   2.912  0.00  0.00    +0.000 A 
ATOM      3  C   UNL     1       5.856   8.995   1.328  0.00  0.00    +0.000 A 
ATOM      4  C   UNL     1       3.805  10.270   1.367  0.00  0.00    +0.000 A 
ATOM      5  C   UNL     1       3.331   9.474   2.410  0.00  0.00    +0.000 A 
ATOM      6  C   UNL     1       5.068  10.030   0.826  0.00  0.00    +0.000 A 
ATOM      7  H   UNL     1       3.737   7.829   3.726  0.00  0.00    +0.000 HD
ATOM      8  H   UNL     1       6.840   8.819   0.900  0.00  0.00    +0.000 HD
ATOM      9  H   UNL     1       2.347   9.657   2.835  0.00  0.00    +0.000 HD
ATOM     10  H   UNL     1       5.498  10.609   0.016  0.00  0.00    +0.000 HD
ENDROOT
BRANCH   1  11
ATOM     11  C   UNL     1       6.225   7.093   2.908  0.00  0.00    +0.000 C 
ATOM     12  H   UNL     1       5.800   6.125   2.613  0.00  0.00    +0.000 HD
ATOM     13  H   UNL     1       7.216   7.124   2.436  0.00  0.00    +0.000 HD
BRANCH  11  14
ATOM     14  C   UNL     1       6.348   7.119   4.410  0.00  0.00    +0.000 C 
ATOM     15  C   UNL     1       7.029   8.047   5.093  0.00  0.00    +0.000 C 
ATOM     16  H   UNL     1       5.861   6.321   4.964  0.00  0.00    +0.000 HD
ATOM     17  H   UNL     1       7.084   8.002   6.175  0.00  0.00    +0.000 HD
ATOM     18  H   UNL     1       7.540   8.860   4.589  0.00  0.00    +0.000 HD
ENDBRANCH  11  14
ENDBRANCH   1  11
BRANCH   4  19
ATOM     19  O   UNL     1       3.035  11.280   0.877  0.00  0.00    +0.000 OA
BRANCH  19  20
ATOM     20  C   UNL     1       3.303  11.712  -0.456  0.00  0.00    +0.000 C 
ATOM     21  H   UNL     1       4.334  12.065  -0.566  0.00  0.00    +0.000 HD
ATOM     22  H   UNL     1       2.572  12.454  -0.792  0.00  0.00    +0.000 HD
ATOM     23  H   UNL     1       3.194  10.838  -1.107  0.00  0.00    +0.000 HD
ENDBRANCH  19  20
ENDBRANCH   4  19
TORSDOF 4
ENDMDL
MODEL 2
REMARK VINA RESULT:    -5.423     14.137     15.131
REMARK INTER + INTRA:          -6.780
REMARK INTER:                  -6.588
REMARK INTRA:                  -0.192
REMARK UNBOUND:                -0.248
REMARK  Name = 8815
REMARK  4 active torsions:
REMARK  status: ('A' for Active; 'I' for Inactive)
REMARK    1  A    between atoms: O_1  and  C_6
REMARK    2  A    between atoms: O_1  and  C_10
REMARK    3  A    between atoms: C_2  and  C_3
REMARK    4  A    between atoms: C_3  and  C_9
REMARK                            x       y       z     vdW  Elec       q    Type
REMARK                         _______ _______ _______ _____ _____    ______ ____
ROOT
ATOM      1  C   UNL     1      -2.973   7.408  -9.636  0.00  0.00    +0.000 A 
ATOM      2  C   UNL     1      -2.436   6.828 -10.786  0.00  0.00    +0.000 A 
ATOM      3  C   UNL     1      -2.685   8.737  -9.326  0.00  0.00    +0.000 A 
ATOM      4  C   UNL     1      -1.324   8.907 -11.315  0.00  0.00    +0.000 A 
ATOM      5  C   UNL     1      -1.612   7.577 -11.625  0.00  0.00    +0.000 A 
ATOM      6  C   UNL     1      -1.861   9.487 -10.165  0.00  0.00    +0.000 A 
ATOM      7  H   UNL     1      -2.653   5.794 -11.040  0.00  0.00    +0.000 HD
ATOM      8  H   UNL     1      -3.099   9.200  -8.434  0.00  0.00    +0.000 HD
ATOM      9  H   UNL     1      -1.197   7.120 -12.519  0.00  0.00    +0.000 HD
ATOM     10  H   UNL     1      -1.679  10.512  -9.865  0.00  0.00    +0.000 HD
ENDROOT
BRANCH   1  11
ATOM     11  C   UNL     1      -3.854   6.607  -8.739  0.00  0.00    +0.000 C 
ATOM     12  H   UNL     1      -3.354   5.666  -8.470  0.00  0.00    +0.000 HD
ATOM     13  H   UNL     1      -3.989   7.139  -7.787  0.00  0.00    +0.000 HD
BRANCH  11  14
ATOM     14  C   UNL     1      -5.186   6.276  -9.361  0.00  0.00    +0.000 C 
ATOM     15  C   UNL     1      -6.205   5.713  -8.701  0.00  0.00    +0.000 C 
ATOM     16  H   UNL     1      -5.313   6.499 -10.417  0.00  0.00    +0.000 HD
ATOM     17  H   UNL     1      -7.135   5.494  -9.212  0.00  0.00    +0.000 HD
ATOM     18  H   UNL     1      -6.129   5.463  -7.648  0.00  0.00    +0.000 HD
ENDBRANCH  11  14
ENDBRANCH   1  11
BRANCH   4  19
ATOM     19  O   UNL     1      -0.520   9.637 -12.134  0.00  0.00    +0.000 OA
BRANCH  19  20
ATOM     20  C   UNL     1      -0.078   9.010 -13.338  0.00  0.00    +0.000 C 
ATOM     21  H   UNL     1       0.807   8.388 -13.166  0.00  0.00    +0.000 HD
ATOM     22  H   UNL     1       0.076   9.740 -14.138  0.00  0.00    +0.000 HD
ATOM     23  H   UNL     1      -0.880   8.340 -13.666  0.00  0.00    +0.000 HD
ENDBRANCH  19  20
ENDBRANCH   4  19
TORSDOF 4
ENDMDL
MODEL 3
REMARK VINA RESULT:    -5.311      1.888      4.976
REMARK INTER + INTRA:          -6.645
REMARK INTER:                  -6.426
REMARK INTRA:                  -0.220
REMARK UNBOUND:                -0.248
REMARK  Name = 8815
REMARK  4 active torsions:
REMARK  status: ('A' for Active; 'I' for Inactive)
REMARK    1  A    between atoms: O_1  and  C_6
REMARK    2  A    between atoms: O_1  and  C_10
REMARK    3  A    between atoms: C_2  and  C_3
REMARK    4  A    between atoms: C_3  and  C_9
REMARK                            x       y       z     vdW  Elec       q    Type
REMARK                         _______ _______ _______ _____ _____    ______ ____
ROOT
ATOM      1  C   UNL     1       4.170  10.054   1.190  0.00  0.00    +0.000 A 
ATOM      2  C   UNL     1       3.609   9.499   2.340  0.00  0.00    +0.000 A 
ATOM      3  C   UNL     1       5.399   9.591   0.720  0.00  0.00    +0.000 A 
ATOM      4  C   UNL     1       5.506   8.017   2.550  0.00  0.00    +0.000 A 
ATOM      5  C   UNL     1       4.277   8.481   3.020  0.00  0.00    +0.000 A 
ATOM      6  C   UNL     1       6.067   8.572   1.399  0.00  0.00    +0.000 A 
ATOM      7  H   UNL     1       2.651   9.850   2.716  0.00  0.00    +0.000 HD
ATOM      8  H   UNL     1       5.846  10.015  -0.176  0.00  0.00    +0.000 HD
ATOM      9  H   UNL     1       3.835   8.052   3.915  0.00  0.00    +0.000 HD
ATOM     10  H   UNL     1       7.016   8.260   0.980  0.00  0.00    +0.000 HD
ENDROOT
BRANCH   1  11
ATOM     11  C   UNL     1       3.457  11.143   0.463  0.00  0.00    +0.000 C 
ATOM     12  H   UNL     1       2.372  11.012   0.569  0.00  0.00    +0.000 HD
ATOM     13  H   UNL     1       3.675  12.108   0.941  0.00  0.00    +0.000 HD
BRANCH  11  14
ATOM     14  C   UNL     1       3.788  11.188  -1.006  0.00  0.00    +0.000 C 
ATOM     15  C   UNL     1       2.874  11.161  -1.984  0.00  0.00    +0.000 C 
ATOM     16  H   UNL     1       4.839  11.228  -1.280  0.00  0.00    +0.000 HD
ATOM     17  H   UNL     1       3.182  11.188  -3.024  0.00  0.00    +0.000 HD
ATOM     18  H   UNL     1       1.813  11.113  -1.767  0.00  0.00    +0.000 HD
ENDBRANCH  11  14
ENDBRANCH   1  11
BRANCH   4  19
ATOM     19  O   UNL     1       6.156   7.023   3.213  0.00  0.00    +0.000 OA
BRANCH  19  20
ATOM     20  C   UNL     1       6.117   7.061   4.640  0.00  0.00    +0.000 C 
ATOM     21  H   UNL     1       5.175   6.658   5.027  0.00  0.00    +0.000 HD
ATOM     22  H   UNL     1       6.329   8.065   5.021  0.00  0.00    +0.000 HD
ATOM     23  H   UNL     1       6.917   6.405   5.002  0.00  0.00    +0.000 HD
ENDBRANCH  19  20
ENDBRANCH   4  19
TORSDOF 4
ENDMDL
MODEL 4
REMARK VINA RESULT:    -4.993     14.212     16.279
REMARK INTER + INTRA:          -6.262
REMARK INTER:                  -6.085
REMARK INTRA:                  -0.178
REMARK UNBOUND:                -0.248
REMARK  Name = 8815
REMARK  4 active torsions:
REMARK  status: ('A' for Active; 'I' for Inactive)
REMARK    1  A    between atoms: O_1  and  C_6
REMARK    2  A    between atoms: O_1  and  C_10
REMARK    3  A    between atoms: C_2  and  C_3
REMARK    4  A    between atoms: C_3  and  C_9
REMARK                            x       y       z     vdW  Elec       q    Type
REMARK                         _______ _______ _______ _____ _____    ______ ____
ROOT
ATOM      1  C   UNL     1      -3.008   6.886 -10.749  0.00  0.00    +0.000 A 
ATOM      2  C   UNL     1      -4.158   6.967 -11.535  0.00  0.00    +0.000 A 
ATOM      3  C   UNL     1      -1.753   6.830 -11.353  0.00  0.00    +0.000 A 
ATOM      4  C   UNL     1      -2.795   6.937 -13.530  0.00  0.00    +0.000 A 
ATOM      5  C   UNL     1      -4.051   6.993 -12.925  0.00  0.00    +0.000 A 
ATOM      6  C   UNL     1      -1.646   6.856 -12.743  0.00  0.00    +0.000 A 
ATOM      7  H   UNL     1      -5.143   7.013 -11.077  0.00  0.00    +0.000 HD
ATOM      8  H   UNL     1      -0.850   6.768 -10.751  0.00  0.00    +0.000 HD
ATOM      9  H   UNL     1      -4.950   7.056 -13.532  0.00  0.00    +0.000 HD
ATOM     10  H   UNL     1      -0.641   6.810 -13.147  0.00  0.00    +0.000 HD
ENDROOT
BRANCH   1  11
ATOM     11  C   UNL     1      -3.122   6.859  -9.262  0.00  0.00    +0.000 C 
ATOM     12  H   UNL     1      -4.024   6.305  -8.968  0.00  0.00    +0.000 HD
ATOM     13  H   UNL     1      -2.286   6.284  -8.840  0.00  0.00    +0.000 HD
BRANCH  11  14
ATOM     14  C   UNL     1      -3.188   8.234  -8.650  0.00  0.00    +0.000 C 
ATOM     15  C   UNL     1      -2.475   9.282  -9.077  0.00  0.00    +0.000 C 
ATOM     16  H   UNL     1      -3.849   8.369  -7.797  0.00  0.00    +0.000 HD
ATOM     17  H   UNL     1      -2.565  10.244  -8.584  0.00  0.00    +0.000 HD
ATOM     18  H   UNL     1      -1.795   9.200  -9.918  0.00  0.00    +0.000 HD
ENDBRANCH  11  14
ENDBRANCH   1  11
BRANCH   4  19
ATOM     19  O   UNL     1      -2.692   6.962 -14.886  0.00  0.00    +0.000 OA
BRANCH  19  20
ATOM     20  C   UNL     1      -1.854   7.967 -15.455  0.00  0.00    +0.000 C 
ATOM     21  H   UNL     1      -1.080   7.531 -16.095  0.00  0.00    +0.000 HD
ATOM     22  H   UNL     1      -1.436   8.625 -14.686  0.00  0.00    +0.000 HD
ATOM     23  H   UNL     1      -2.486   8.590 -16.098  0.00  0.00    +0.000 HD
ENDBRANCH  19  20
ENDBRANCH   4  19
TORSDOF 4
ENDMDL
MODEL 5
REMARK VINA RESULT:    -4.909     27.889     28.709
REMARK INTER + INTRA:          -6.161
REMARK INTER:                  -5.930
REMARK INTRA:                  -0.231
REMARK UNBOUND:                -0.248
REMARK  Name = 8815
REMARK  4 active torsions:
REMARK  status: ('A' for Active; 'I' for Inactive)
REMARK    1  A    between atoms: O_1  and  C_6
REMARK    2  A    between atoms: O_1  and  C_10
REMARK    3  A    between atoms: C_2  and  C_3
REMARK    4  A    between atoms: C_3  and  C_9
REMARK                            x       y       z     vdW  Elec       q    Type
REMARK                         _______ _______ _______ _____ _____    ______ ____
ROOT
ATOM      1  C   UNL     1     -20.745  -1.740   5.339  0.00  0.00    +0.000 A 
ATOM      2  C   UNL     1     -21.129  -1.657   4.000  0.00  0.00    +0.000 A 
ATOM      3  C   UNL     1     -20.450  -2.981   5.904  0.00  0.00    +0.000 A 
ATOM      4  C   UNL     1     -20.923  -4.055   3.793  0.00  0.00    +0.000 A 
ATOM      5  C   UNL     1     -21.218  -2.815   3.228  0.00  0.00    +0.000 A 
ATOM      6  C   UNL     1     -20.539  -4.139   5.131  0.00  0.00    +0.000 A 
ATOM      7  H   UNL     1     -21.359  -0.697   3.547  0.00  0.00    +0.000 HD
ATOM      8  H   UNL     1     -20.148  -3.059   6.946  0.00  0.00    +0.000 HD
ATOM      9  H   UNL     1     -21.517  -2.743   2.186  0.00  0.00    +0.000 HD
ATOM     10  H   UNL     1     -20.296  -5.069   5.633  0.00  0.00    +0.000 HD
ENDROOT
BRANCH   1  11
ATOM     11  C   UNL     1     -20.649  -0.503   6.166  0.00  0.00    +0.000 C 
ATOM     12  H   UNL     1     -19.683  -0.012   5.990  0.00  0.00    +0.000 HD
ATOM     13  H   UNL     1     -21.402   0.222   5.829  0.00  0.00    +0.000 HD
BRANCH  11  14
ATOM     14  C   UNL     1     -20.785  -0.768   7.643  0.00  0.00    +0.000 C 
ATOM     15  C   UNL     1     -21.923  -0.621   8.332  0.00  0.00    +0.000 C 
ATOM     16  H   UNL     1     -19.892  -1.083   8.178  0.00  0.00    +0.000 HD
ATOM     17  H   UNL     1     -21.949  -0.822   9.397  0.00  0.00    +0.000 HD
ATOM     18  H   UNL     1     -22.840  -0.302   7.849  0.00  0.00    +0.000 HD
ENDBRANCH  11  14
ENDBRANCH   1  11
BRANCH   4  19
ATOM     19  O   UNL     1     -21.010  -5.184   3.038  0.00  0.00    +0.000 OA
BRANCH  19  20
ATOM     20  C   UNL     1     -19.784  -5.819   2.676  0.00  0.00    +0.000 C 
ATOM     21  H   UNL     1     -18.927  -5.152   2.819  0.00  0.00    +0.000 HD
ATOM     22  H   UNL     1     -19.828  -6.228   1.661  0.00  0.00    +0.000 HD
ATOM     23  H   UNL     1     -19.646  -6.667   3.356  0.00  0.00    +0.000 HD
ENDBRANCH  19  20
ENDBRANCH   4  19
TORSDOF 4
ENDMDL
MODEL 6
REMARK VINA RESULT:    -4.782     12.909     13.736
REMARK INTER + INTRA:          -6.008
REMARK INTER:                  -5.760
REMARK INTRA:                  -0.248
REMARK UNBOUND:                -0.248
REMARK  Name = 8815
REMARK  4 active torsions:
REMARK  status: ('A' for Active; 'I' for Inactive)
REMARK    1  A    between atoms: O_1  and  C_6
REMARK    2  A    between atoms: O_1  and  C_10
REMARK    3  A    between atoms: C_2  and  C_3
REMARK    4  A    between atoms: C_3  and  C_9
REMARK                            x       y       z     vdW  Elec       q    Type
REMARK                         _______ _______ _______ _____ _____    ______ ____
ROOT
ATOM      1  C   UNL     1      -8.340  11.004   6.626  0.00  0.00    +0.000 A 
ATOM      2  C   UNL     1      -8.001  11.027   5.273  0.00  0.00    +0.000 A 
ATOM      3  C   UNL     1      -7.913  12.029   7.470  0.00  0.00    +0.000 A 
ATOM      4  C   UNL     1      -6.807  13.101   5.608  0.00  0.00    +0.000 A 
ATOM      5  C   UNL     1      -7.235  12.076   4.765  0.00  0.00    +0.000 A 
ATOM      6  C   UNL     1      -7.147  13.077   6.962  0.00  0.00    +0.000 A 
ATOM      7  H   UNL     1      -8.330  10.236   4.604  0.00  0.00    +0.000 HD
ATOM      8  H   UNL     1      -8.172  12.022   8.526  0.00  0.00    +0.000 HD
ATOM      9  H   UNL     1      -6.974  12.089   3.710  0.00  0.00    +0.000 HD
ATOM     10  H   UNL     1      -6.848  13.840   7.672  0.00  0.00    +0.000 HD
ENDROOT
BRANCH   1  11
ATOM     11  C   UNL     1      -9.160   9.883   7.170  0.00  0.00    +0.000 C 
ATOM     12  H   UNL     1     -10.224  10.151   7.138  0.00  0.00    +0.000 HD
ATOM     13  H   UNL     1      -9.067   9.008   6.514  0.00  0.00    +0.000 HD
BRANCH  11  14
ATOM     14  C   UNL     1      -8.803   9.526   8.590  0.00  0.00    +0.000 C 
ATOM     15  C   UNL     1      -7.920   8.579   8.929  0.00  0.00    +0.000 C 
ATOM     16  H   UNL     1      -9.313  10.067   9.384  0.00  0.00    +0.000 HD
ATOM     17  H   UNL     1      -7.716   8.367   9.972  0.00  0.00    +0.000 HD
ATOM     18  H   UNL     1      -7.390   8.005   8.177  0.00  0.00    +0.000 HD
ENDBRANCH  11  14
ENDBRANCH   1  11
BRANCH   4  19
ATOM     19  O   UNL     1      -6.060  14.123   5.111  0.00  0.00    +0.000 OA
BRANCH  19  20
ATOM     20  C   UNL     1      -6.613  15.436   5.203  0.00  0.00    +0.000 C 
ATOM     21  H   UNL     1      -5.830  16.201   5.248  0.00  0.00    +0.000 HD
ATOM     22  H   UNL     1      -7.322  15.516   6.033  0.00  0.00    +0.000 HD
ATOM     23  H   UNL     1      -7.178  15.613   4.281  0.00  0.00    +0.000 HD
ENDBRANCH  19  20
ENDBRANCH   4  19
TORSDOF 4
ENDMDL
MODEL 7
REMARK VINA RESULT:    -4.771     27.042     28.287
REMARK INTER + INTRA:          -5.994
REMARK INTER:                  -5.762
REMARK INTRA:                  -0.232
REMARK UNBOUND:                -0.248
REMARK  Name = 8815
REMARK  4 active torsions:
REMARK  status: ('A' for Active; 'I' for Inactive)
REMARK    1  A    between atoms: O_1  and  C_6
REMARK    2  A    between atoms: O_1  and  C_10
REMARK    3  A    between atoms: C_2  and  C_3
REMARK    4  A    between atoms: C_3  and  C_9
REMARK                            x       y       z     vdW  Elec       q    Type
REMARK                         _______ _______ _______ _____ _____    ______ ____
ROOT
ATOM      1  C   UNL     1     -20.366  -3.886   4.088  0.00  0.00    +0.000 A 
ATOM      2  C   UNL     1     -20.848  -2.708   3.516  0.00  0.00    +0.000 A 
ATOM      3  C   UNL     1     -20.272  -4.000   5.475  0.00  0.00    +0.000 A 
ATOM      4  C   UNL     1     -21.142  -1.760   5.719  0.00  0.00    +0.000 A 
ATOM      5  C   UNL     1     -21.236  -1.646   4.332  0.00  0.00    +0.000 A 
ATOM      6  C   UNL     1     -20.660  -2.938   6.290  0.00  0.00    +0.000 A 
ATOM      7  H   UNL     1     -20.928  -2.607   2.437  0.00  0.00    +0.000 HD
ATOM      8  H   UNL     1     -19.900  -4.914   5.932  0.00  0.00    +0.000 HD
ATOM      9  H   UNL     1     -21.611  -0.731   3.880  0.00  0.00    +0.000 HD
ATOM     10  H   UNL     1     -20.562  -3.093   7.359  0.00  0.00    +0.000 HD
ENDROOT
BRANCH   1  11
ATOM     11  C   UNL     1     -19.952  -5.023   3.217  0.00  0.00    +0.000 C 
ATOM     12  H   UNL     1     -20.297  -5.970   3.652  0.00  0.00    +0.000 HD
ATOM     13  H   UNL     1     -20.466  -4.950   2.249  0.00  0.00    +0.000 HD
BRANCH  11  14
ATOM     14  C   UNL     1     -18.460  -5.105   3.024  0.00  0.00    +0.000 C 
ATOM     15  C   UNL     1     -17.835  -4.846   1.869  0.00  0.00    +0.000 C 
ATOM     16  H   UNL     1     -17.862  -5.411   3.879  0.00  0.00    +0.000 HD
ATOM     17  H   UNL     1     -16.757  -4.933   1.797  0.00  0.00    +0.000 HD
ATOM     18  H   UNL     1     -18.384  -4.546   0.983  0.00  0.00    +0.000 HD
ENDBRANCH  11  14
ENDBRANCH   1  11
BRANCH   4  19
ATOM     19  O   UNL     1     -21.521  -0.722   6.513  0.00  0.00    +0.000 OA
BRANCH  19  20
ATOM     20  C   UNL     1     -21.142  -0.785   7.888  0.00  0.00    +0.000 C 
ATOM     21  H   UNL     1     -20.053  -0.784   8.006  0.00  0.00    +0.000 HD
ATOM     22  H   UNL     1     -21.615  -1.631   8.397  0.00  0.00    +0.000 HD
ATOM     23  H   UNL     1     -21.515   0.126   8.368  0.00  0.00    +0.000 HD
ENDBRANCH  19  20
ENDBRANCH   4  19
TORSDOF 4
ENDMDL
MODEL 8
REMARK VINA RESULT:    -4.766     12.929     14.168
REMARK INTER + INTRA:          -5.989
REMARK INTER:                  -5.798
REMARK INTRA:                  -0.191
REMARK UNBOUND:                -0.248
REMARK  Name = 8815
REMARK  4 active torsions:
REMARK  status: ('A' for Active; 'I' for Inactive)
REMARK    1  A    between atoms: O_1  and  C_6
REMARK    2  A    between atoms: O_1  and  C_10
REMARK    3  A    between atoms: C_2  and  C_3
REMARK    4  A    between atoms: C_3  and  C_9
REMARK                            x       y       z     vdW  Elec       q    Type
REMARK                         _______ _______ _______ _____ _____    ______ ____
ROOT
ATOM      1  C   UNL     1      -6.913  12.985   5.708  0.00  0.00    +0.000 A 
ATOM      2  C   UNL     1      -7.286  12.950   7.052  0.00  0.00    +0.000 A 
ATOM      3  C   UNL     1      -7.326  11.972   4.843  0.00  0.00    +0.000 A 
ATOM      4  C   UNL     1      -8.484  10.888   6.665  0.00  0.00    +0.000 A 
ATOM      5  C   UNL     1      -8.071  11.901   7.530  0.00  0.00    +0.000 A 
ATOM      6  C   UNL     1      -8.111  10.923   5.321  0.00  0.00    +0.000 A 
ATOM      7  H   UNL     1      -6.973  13.734   7.736  0.00  0.00    +0.000 HD
ATOM      8  H   UNL     1      -7.043  11.989   3.793  0.00  0.00    +0.000 HD
ATOM      9  H   UNL     1      -8.358  11.880   8.578  0.00  0.00    +0.000 HD
ATOM     10  H   UNL     1      -8.397  10.170   4.596  0.00  0.00    +0.000 HD
ENDROOT
BRANCH   1  11
ATOM     11  C   UNL     1      -6.074  14.106   5.196  0.00  0.00    +0.000 C 
ATOM     12  H   UNL     1      -5.206  14.251   5.853  0.00  0.00    +0.000 HD
ATOM     13  H   UNL     1      -5.649  13.832   4.221  0.00  0.00    +0.000 HD
BRANCH  11  14
ATOM     14  C   UNL     1      -6.822  15.411   5.105  0.00  0.00    +0.000 C 
ATOM     15  C   UNL     1      -6.236  16.607   4.978  0.00  0.00    +0.000 C 
ATOM     16  H   UNL     1      -7.907  15.369   5.162  0.00  0.00    +0.000 HD
ATOM     17  H   UNL     1      -6.836  17.509   4.926  0.00  0.00    +0.000 HD
ATOM     18  H   UNL     1      -5.158  16.707   4.924  0.00  0.00    +0.000 HD
ENDBRANCH  11  14
ENDBRANCH   1  11
BRANCH   4  19
ATOM     19  O   UNL     1      -9.250   9.865   7.133  0.00  0.00    +0.000 OA
BRANCH  19  20
ATOM     20  C   UNL     1      -8.939   9.362   8.431  0.00  0.00    +0.000 C 
ATOM     21  H   UNL     1      -9.840   9.043   8.966  0.00  0.00    +0.000 HD
ATOM     22  H   UNL     1      -8.345  10.078   9.008  0.00  0.00    +0.000 HD
ATOM     23  H   UNL     1      -8.318   8.470   8.292  0.00  0.00    +0.000 HD
ENDBRANCH  19  20
ENDBRANCH   4  19
TORSDOF 4
ENDMDL
MODEL 9
REMARK VINA RESULT:    -4.720     13.954     15.824
REMARK INTER + INTRA:          -5.933
REMARK INTER:                  -5.682
REMARK INTRA:                  -0.251
REMARK UNBOUND:                -0.248
REMARK  Name = 8815
REMARK  4 active torsions:
REMARK  status: ('A' for Active; 'I' for Inactive)
REMARK    1  A    between atoms: O_1  and  C_6
REMARK    2  A    between atoms: O_1  and  C_10
REMARK    3  A    between atoms: C_2  and  C_3
REMARK    4  A    between atoms: C_3  and  C_9
REMARK                            x       y       z     vdW  Elec       q    Type
REMARK                         _______ _______ _______ _____ _____    ______ ____
ROOT
ATOM      1  C   UNL     1      -2.780   7.634 -11.431  0.00  0.00    +0.000 A 
ATOM      2  C   UNL     1      -1.481   7.172 -11.651  0.00  0.00    +0.000 A 
ATOM      3  C   UNL     1      -3.179   8.865 -11.951  0.00  0.00    +0.000 A 
ATOM      4  C   UNL     1      -0.984   9.174 -12.910  0.00  0.00    +0.000 A 
ATOM      5  C   UNL     1      -0.584   7.943 -12.390  0.00  0.00    +0.000 A 
ATOM      6  C   UNL     1      -2.282   9.635 -12.690  0.00  0.00    +0.000 A 
ATOM      7  H   UNL     1      -1.157   6.214 -11.254  0.00  0.00    +0.000 HD
ATOM      8  H   UNL     1      -4.189   9.234 -11.788  0.00  0.00    +0.000 HD
ATOM      9  H   UNL     1       0.426   7.578 -12.558  0.00  0.00    +0.000 HD
ATOM     10  H   UNL     1      -2.658  10.580 -13.064  0.00  0.00    +0.000 HD
ENDROOT
BRANCH   1  11
ATOM     11  C   UNL     1      -3.740   6.810 -10.641  0.00  0.00    +0.000 C 
ATOM     12  H   UNL     1      -4.766   7.151 -10.832  0.00  0.00    +0.000 HD
ATOM     13  H   UNL     1      -3.713   5.772 -10.998  0.00  0.00    +0.000 HD
BRANCH  11  14
ATOM     14  C   UNL     1      -3.488   6.872  -9.157  0.00  0.00    +0.000 C 
ATOM     15  C   UNL     1      -3.225   7.999  -8.485  0.00  0.00    +0.000 C 
ATOM     16  H   UNL     1      -3.507   5.934  -8.608  0.00  0.00    +0.000 HD
ATOM     17  H   UNL     1      -3.045   7.971  -7.416  0.00  0.00    +0.000 HD
ATOM     18  H   UNL     1      -3.186   8.961  -8.985  0.00  0.00    +0.000 HD
ENDBRANCH  11  14
ENDBRANCH   1  11
BRANCH   4  19
ATOM     19  O   UNL     1      -0.108   9.924 -13.631  0.00  0.00    +0.000 OA
BRANCH  19  20
ATOM     20  C   UNL     1       0.551   9.284 -14.723  0.00  0.00    +0.000 C 
ATOM     21  H   UNL     1       1.636   9.419 -14.675  0.00  0.00    +0.000 HD
ATOM     22  H   UNL     1       0.135   9.600 -15.685  0.00  0.00    +0.000 HD
ATOM     23  H   UNL     1       0.359   8.209 -14.630  0.00  0.00    +0.000 HD
ENDBRANCH  19  20
ENDBRANCH   4  19
TORSDOF 4
ENDMDL
MODEL 10
REMARK VINA RESULT:    -4.672      1.845      2.711
REMARK INTER + INTRA:          -5.876
REMARK INTER:                  -5.648
REMARK INTRA:                  -0.228
REMARK UNBOUND:                -0.248
REMARK  Name = 8815
REMARK  4 active torsions:
REMARK  status: ('A' for Active; 'I' for Inactive)
REMARK    1  A    between atoms: O_1  and  C_6
REMARK    2  A    between atoms: O_1  and  C_10
REMARK    3  A    between atoms: C_2  and  C_3
REMARK    4  A    between atoms: C_3  and  C_9
REMARK                            x       y       z     vdW  Elec       q    Type
REMARK                         _______ _______ _______ _____ _____    ______ ____
ROOT
ATOM      1  C   UNL     1       6.799   8.637   4.427  0.00  0.00    +0.000 A 
ATOM      2  C   UNL     1       5.415   8.628   4.602  0.00  0.00    +0.000 A 
ATOM      3  C   UNL     1       7.340   8.639   3.141  0.00  0.00    +0.000 A 
ATOM      4  C   UNL     1       5.113   8.621   2.205  0.00  0.00    +0.000 A 
ATOM      5  C   UNL     1       4.572   8.620   3.491  0.00  0.00    +0.000 A 
ATOM      6  C   UNL     1       6.497   8.631   2.030  0.00  0.00    +0.000 A 
ATOM      7  H   UNL     1       4.981   8.629   5.599  0.00  0.00    +0.000 HD
ATOM      8  H   UNL     1       8.416   8.647   2.992  0.00  0.00    +0.000 HD
ATOM      9  H   UNL     1       3.495   8.613   3.634  0.00  0.00    +0.000 HD
ATOM     10  H   UNL     1       6.983   8.632   1.061  0.00  0.00    +0.000 HD
ENDROOT
BRANCH   1  11
ATOM     11  C   UNL     1       7.701   8.646   5.615  0.00  0.00    +0.000 C 
ATOM     12  H   UNL     1       7.656   7.673   6.123  0.00  0.00    +0.000 HD
ATOM     13  H   UNL     1       8.743   8.746   5.284  0.00  0.00    +0.000 HD
BRANCH  11  14
ATOM     14  C   UNL     1       7.352   9.719   6.613  0.00  0.00    +0.000 C 
ATOM     15  C   UNL     1       8.106  10.799   6.852  0.00  0.00    +0.000 C 
ATOM     16  H   UNL     1       6.434   9.592   7.183  0.00  0.00    +0.000 HD
ATOM     17  H   UNL     1       7.800  11.530   7.591  0.00  0.00    +0.000 HD
ATOM     18  H   UNL     1       9.035  10.970   6.318  0.00  0.00    +0.000 HD
ENDBRANCH  11  14
ENDBRANCH   1  11
BRANCH   4  19
ATOM     19  O   UNL     1       4.290   8.614   1.122  0.00  0.00    +0.000 OA
BRANCH  19  20
ATOM     20  C   UNL     1       4.213   9.816   0.356  0.00  0.00    +0.000 C 
ATOM     21  H   UNL     1       3.273  10.349   0.535  0.00  0.00    +0.000 HD
ATOM     22  H   UNL     1       4.388   9.626  -0.708  0.00  0.00    +0.000 HD
ATOM     23  H   UNL     1       5.021  10.470   0.701  0.00  0.00    +0.000 HD
ENDBRANCH  19  20
ENDBRANCH   4  19
TORSDOF 4
ENDMDL
