MODEL 1
REMARK VINA RESULT:    -3.872      0.000      0.000
REMARK INTER + INTRA:          -4.897
REMARK INTER:                  -4.816
REMARK INTRA:                  -0.081
REMARK UNBOUND:                -0.120
REMARK  Name = 429065
REMARK  5 active torsions:
REMARK  status: ('A' for Active; 'I' for Inactive)
REMARK    1  A    between atoms: O_1  and  C_3
REMARK    2  A    between atoms: O_1  and  C_5
REMARK    3  A    between atoms: C_3  and  C_4
REMARK    4  A    between atoms: C_5  and  C_6
REMARK    5  A    between atoms: C_7  and  C_8
REMARK                            x       y       z     vdW  Elec       q    Type
REMARK                         _______ _______ _______ _____ _____    ______ ____
ROOT
ATOM      1  O   UNL     1       3.137   9.699   2.796  0.00  0.00    +0.000 OA
ATOM      2  C   UNL     1       3.883   9.254   1.938  0.00  0.00    +0.000 C 
ENDROOT
BRANCH   2   3
ATOM      3  C   UNL     1       3.818   9.576   0.496  0.00  0.00    +0.000 C 
ATOM      4  C   UNL     1       3.545  10.827   0.101  0.00  0.00    +0.000 C 
ATOM      5  H   UNL     1       3.994   8.782  -0.222  0.00  0.00    +0.000 HD
ATOM      6  H   UNL     1       3.371  11.612   0.831  0.00  0.00    +0.000 HD
BRANCH   4   7
ATOM      7  C   UNL     1       3.461  11.235  -1.333  0.00  0.00    +0.000 C 
ATOM      8  H   UNL     1       3.460  12.326  -1.411  0.00  0.00    +0.000 HD
ATOM      9  H   UNL     1       2.556  10.857  -1.820  0.00  0.00    +0.000 HD
ATOM     10  H   UNL     1       4.328  10.851  -1.880  0.00  0.00    +0.000 HD
ENDBRANCH   4   7
ENDBRANCH   2   3
BRANCH   2  11
ATOM     11  O   UNL     1       4.913   8.384   2.120  0.00  0.00    +0.000 OA
BRANCH  11  12
ATOM     12  C   UNL     1       5.366   8.241   3.471  0.00  0.00    +0.000 C 
ATOM     13  H   UNL     1       6.380   8.643   3.559  0.00  0.00    +0.000 HD
ATOM     14  H   UNL     1       4.696   8.793   4.140  0.00  0.00    +0.000 HD
BRANCH  12  15
ATOM     15  C   UNL     1       5.362   6.773   3.839  0.00  0.00    +0.000 C 
ATOM     16  H   UNL     1       4.569   6.239   3.307  0.00  0.00    +0.000 HD
ATOM     17  H   UNL     1       6.325   6.312   3.594  0.00  0.00    +0.000 HD
ATOM     18  H   UNL     1       5.214   6.646   4.916  0.00  0.00    +0.000 HD
ENDBRANCH  12  15
ENDBRANCH  11  12
ENDBRANCH   2  11
TORSDOF 5
ENDMDL
MODEL 2
REMARK VINA RESULT:    -3.821      1.956      2.331
REMARK INTER + INTRA:          -4.834
REMARK INTER:                  -4.631
REMARK INTRA:                  -0.203
REMARK UNBOUND:                -0.120
REMARK  Name = 429065
REMARK  5 active torsions:
REMARK  status: ('A' for Active; 'I' for Inactive)
REMARK    1  A    between atoms: O_1  and  C_3
REMARK    2  A    between atoms: O_1  and  C_5
REMARK    3  A    between atoms: C_3  and  C_4
REMARK    4  A    between atoms: C_5  and  C_6
REMARK    5  A    between atoms: C_7  and  C_8
REMARK                            x       y       z     vdW  Elec       q    Type
REMARK                         _______ _______ _______ _____ _____    ______ ____
ROOT
ATOM      1  O   UNL     1       3.201  11.396   1.364  0.00  0.00    +0.000 OA
ATOM      2  C   UNL     1       3.705  10.503   0.701  0.00  0.00    +0.000 C 
ENDROOT
BRANCH   2   3
ATOM      3  C   UNL     1       4.640  10.697  -0.428  0.00  0.00    +0.000 C 
ATOM      4  C   UNL     1       5.939  10.921  -0.190  0.00  0.00    +0.000 C 
ATOM      5  H   UNL     1       4.249  10.655  -1.439  0.00  0.00    +0.000 HD
ATOM      6  H   UNL     1       6.316  10.961   0.829  0.00  0.00    +0.000 HD
BRANCH   4   7
ATOM      7  C   UNL     1       6.948  11.128  -1.271  0.00  0.00    +0.000 C 
ATOM      8  H   UNL     1       6.532  10.817  -2.233  0.00  0.00    +0.000 HD
ATOM      9  H   UNL     1       7.867  10.559  -1.096  0.00  0.00    +0.000 HD
ATOM     10  H   UNL     1       7.211  12.188  -1.336  0.00  0.00    +0.000 HD
ENDBRANCH   4   7
ENDBRANCH   2   3
BRANCH   2  11
ATOM     11  O   UNL     1       3.517   9.164   0.855  0.00  0.00    +0.000 OA
BRANCH  11  12
ATOM     12  C   UNL     1       3.368   8.715   2.206  0.00  0.00    +0.000 C 
ATOM     13  H   UNL     1       2.778   9.445   2.770  0.00  0.00    +0.000 HD
ATOM     14  H   UNL     1       2.855   7.747   2.214  0.00  0.00    +0.000 HD
BRANCH  12  15
ATOM     15  C   UNL     1       4.740   8.572   2.831  0.00  0.00    +0.000 C 
ATOM     16  H   UNL     1       5.379   7.922   2.227  0.00  0.00    +0.000 HD
ATOM     17  H   UNL     1       5.222   9.551   2.928  0.00  0.00    +0.000 HD
ATOM     18  H   UNL     1       4.662   8.155   3.839  0.00  0.00    +0.000 HD
ENDBRANCH  12  15
ENDBRANCH  11  12
ENDBRANCH   2  11
TORSDOF 5
ENDMDL
MODEL 3
REMARK VINA RESULT:    -3.786      1.310      4.348
REMARK INTER + INTRA:          -4.791
REMARK INTER:                  -4.687
REMARK INTRA:                  -0.104
REMARK UNBOUND:                -0.120
REMARK  Name = 429065
REMARK  5 active torsions:
REMARK  status: ('A' for Active; 'I' for Inactive)
REMARK    1  A    between atoms: O_1  and  C_3
REMARK    2  A    between atoms: O_1  and  C_5
REMARK    3  A    between atoms: C_3  and  C_4
REMARK    4  A    between atoms: C_5  and  C_6
REMARK    5  A    between atoms: C_7  and  C_8
REMARK                            x       y       z     vdW  Elec       q    Type
REMARK                         _______ _______ _______ _____ _____    ______ ____
ROOT
ATOM      1  O   UNL     1       3.602   8.766   0.377  0.00  0.00    +0.000 OA
ATOM      2  C   UNL     1       3.613   9.413   1.412  0.00  0.00    +0.000 C 
ENDROOT
BRANCH   2   3
ATOM      3  C   UNL     1       3.940   8.881   2.752  0.00  0.00    +0.000 C 
ATOM      4  C   UNL     1       4.820   7.880   2.878  0.00  0.00    +0.000 C 
ATOM      5  H   UNL     1       3.452   9.318   3.617  0.00  0.00    +0.000 HD
ATOM      6  H   UNL     1       5.299   7.451   2.003  0.00  0.00    +0.000 HD
BRANCH   4   7
ATOM      7  C   UNL     1       5.204   7.285   4.193  0.00  0.00    +0.000 C 
ATOM      8  H   UNL     1       6.040   7.843   4.625  0.00  0.00    +0.000 HD
ATOM      9  H   UNL     1       5.505   6.236   4.103  0.00  0.00    +0.000 HD
ATOM     10  H   UNL     1       4.359   7.339   4.887  0.00  0.00    +0.000 HD
ENDBRANCH   4   7
ENDBRANCH   2   3
BRANCH   2  11
ATOM     11  O   UNL     1       3.331  10.737   1.551  0.00  0.00    +0.000 OA
BRANCH  11  12
ATOM     12  C   UNL     1       3.526  11.535   0.378  0.00  0.00    +0.000 C 
ATOM     13  H   UNL     1       3.195  10.975  -0.502  0.00  0.00    +0.000 HD
ATOM     14  H   UNL     1       2.942  12.458   0.464  0.00  0.00    +0.000 HD
BRANCH  12  15
ATOM     15  C   UNL     1       4.997  11.869   0.249  0.00  0.00    +0.000 C 
ATOM     16  H   UNL     1       5.444  12.050   1.231  0.00  0.00    +0.000 HD
ATOM     17  H   UNL     1       5.537  11.051  -0.240  0.00  0.00    +0.000 HD
ATOM     18  H   UNL     1       5.137  12.759  -0.373  0.00  0.00    +0.000 HD
ENDBRANCH  12  15
ENDBRANCH  11  12
ENDBRANCH   2  11
TORSDOF 5
ENDMDL
MODEL 4
REMARK VINA RESULT:    -3.690     13.471     14.491
REMARK INTER + INTRA:          -4.672
REMARK INTER:                  -4.537
REMARK INTRA:                  -0.135
REMARK UNBOUND:                -0.120
REMARK  Name = 429065
REMARK  5 active torsions:
REMARK  status: ('A' for Active; 'I' for Inactive)
REMARK    1  A    between atoms: O_1  and  C_3
REMARK    2  A    between atoms: O_1  and  C_5
REMARK    3  A    between atoms: C_3  and  C_4
REMARK    4  A    between atoms: C_5  and  C_6
REMARK    5  A    between atoms: C_7  and  C_8
REMARK                            x       y       z     vdW  Elec       q    Type
REMARK                         _______ _______ _______ _____ _____    ______ ____
ROOT
ATOM      1  O   UNL     1      -1.034  10.254 -10.410  0.00  0.00    +0.000 OA
ATOM      2  C   UNL     1      -1.681   9.242 -10.625  0.00  0.00    +0.000 C 
ENDROOT
BRANCH   2   3
ATOM      3  C   UNL     1      -2.639   8.621  -9.684  0.00  0.00    +0.000 C 
ATOM      4  C   UNL     1      -2.987   7.337  -9.834  0.00  0.00    +0.000 C 
ATOM      5  H   UNL     1      -3.045   9.228  -8.881  0.00  0.00    +0.000 HD
ATOM      6  H   UNL     1      -2.573   6.742 -10.644  0.00  0.00    +0.000 HD
BRANCH   4   7
ATOM      7  C   UNL     1      -3.947   6.636  -8.930  0.00  0.00    +0.000 C 
ATOM      8  H   UNL     1      -4.827   6.317  -9.496  0.00  0.00    +0.000 HD
ATOM      9  H   UNL     1      -4.283   7.273  -8.107  0.00  0.00    +0.000 HD
ATOM     10  H   UNL     1      -3.473   5.747  -8.502  0.00  0.00    +0.000 HD
ENDBRANCH   4   7
ENDBRANCH   2   3
BRANCH   2  11
ATOM     11  O   UNL     1      -1.659   8.481 -11.753  0.00  0.00    +0.000 OA
BRANCH  11  12
ATOM     12  C   UNL     1      -0.368   8.291 -12.342  0.00  0.00    +0.000 C 
ATOM     13  H   UNL     1       0.384   8.825 -11.752  0.00  0.00    +0.000 HD
ATOM     14  H   UNL     1      -0.129   7.222 -12.357  0.00  0.00    +0.000 HD
BRANCH  12  15
ATOM     15  C   UNL     1      -0.389   8.831 -13.756  0.00  0.00    +0.000 C 
ATOM     16  H   UNL     1       0.571   8.663 -14.253  0.00  0.00    +0.000 HD
ATOM     17  H   UNL     1      -1.179   8.348 -14.342  0.00  0.00    +0.000 HD
ATOM     18  H   UNL     1      -0.604   9.904 -13.756  0.00  0.00    +0.000 HD
ENDBRANCH  12  15
ENDBRANCH  11  12
ENDBRANCH   2  11
TORSDOF 5
ENDMDL
MODEL 5
REMARK VINA RESULT:    -3.600     13.819     14.920
REMARK INTER + INTRA:          -4.561
REMARK INTER:                  -4.340
REMARK INTRA:                  -0.221
REMARK UNBOUND:                -0.120
REMARK  Name = 429065
REMARK  5 active torsions:
REMARK  status: ('A' for Active; 'I' for Inactive)
REMARK    1  A    between atoms: O_1  and  C_3
REMARK    2  A    between atoms: O_1  and  C_5
REMARK    3  A    between atoms: C_3  and  C_4
REMARK    4  A    between atoms: C_5  and  C_6
REMARK    5  A    between atoms: C_7  and  C_8
REMARK                            x       y       z     vdW  Elec       q    Type
REMARK                         _______ _______ _______ _____ _____    ______ ____
ROOT
ATOM      1  O   UNL     1      -2.814   7.986 -13.209  0.00  0.00    +0.000 OA
ATOM      2  C   UNL     1      -2.318   7.614 -12.157  0.00  0.00    +0.000 C 
ENDROOT
BRANCH   2   3
ATOM      3  C   UNL     1      -2.999   6.795 -11.131  0.00  0.00    +0.000 C 
ATOM      4  C   UNL     1      -3.145   7.267  -9.886  0.00  0.00    +0.000 C 
ATOM      5  H   UNL     1      -3.370   5.815 -11.412  0.00  0.00    +0.000 HD
ATOM      6  H   UNL     1      -2.767   8.250  -9.620  0.00  0.00    +0.000 HD
BRANCH   4   7
ATOM      7  C   UNL     1      -3.818   6.505  -8.793  0.00  0.00    +0.000 C 
ATOM      8  H   UNL     1      -3.096   5.851  -8.295  0.00  0.00    +0.000 HD
ATOM      9  H   UNL     1      -4.640   5.885  -9.164  0.00  0.00    +0.000 HD
ATOM     10  H   UNL     1      -4.223   7.199  -8.050  0.00  0.00    +0.000 HD
ENDBRANCH   4   7
ENDBRANCH   2   3
BRANCH   2  11
ATOM     11  O   UNL     1      -1.058   7.870 -11.711  0.00  0.00    +0.000 OA
BRANCH  11  12
ATOM     12  C   UNL     1      -0.575   9.195 -11.958  0.00  0.00    +0.000 C 
ATOM     13  H   UNL     1       0.519   9.183 -11.998  0.00  0.00    +0.000 HD
ATOM     14  H   UNL     1      -0.971   9.555 -12.915  0.00  0.00    +0.000 HD
BRANCH  12  15
ATOM     15  C   UNL     1      -1.037  10.104 -10.839  0.00  0.00    +0.000 C 
ATOM     16  H   UNL     1      -1.909  10.689 -11.145  0.00  0.00    +0.000 HD
ATOM     17  H   UNL     1      -1.297   9.519  -9.950  0.00  0.00    +0.000 HD
ATOM     18  H   UNL     1      -0.236  10.790 -10.545  0.00  0.00    +0.000 HD
ENDBRANCH  12  15
ENDBRANCH  11  12
ENDBRANCH   2  11
TORSDOF 5
ENDMDL
MODEL 6
REMARK VINA RESULT:    -3.439     27.215     27.656
REMARK INTER + INTRA:          -4.362
REMARK INTER:                  -4.153
REMARK INTRA:                  -0.210
REMARK UNBOUND:                -0.120
REMARK  Name = 429065
REMARK  5 active torsions:
REMARK  status: ('A' for Active; 'I' for Inactive)
REMARK    1  A    between atoms: O_1  and  C_3
REMARK    2  A    between atoms: O_1  and  C_5
REMARK    3  A    between atoms: C_3  and  C_4
REMARK    4  A    between atoms: C_5  and  C_6
REMARK    5  A    between atoms: C_7  and  C_8
REMARK                            x       y       z     vdW  Elec       q    Type
REMARK                         _______ _______ _______ _____ _____    ______ ____
ROOT
ATOM      1  O   UNL     1     -18.464  -5.611   5.192  0.00  0.00    +0.000 OA
ATOM      2  C   UNL     1     -19.196  -5.088   4.367  0.00  0.00    +0.000 C 
ENDROOT
BRANCH   2   3
ATOM      3  C   UNL     1     -18.872  -4.891   2.937  0.00  0.00    +0.000 C 
ATOM      4  C   UNL     1     -19.717  -4.216   2.147  0.00  0.00    +0.000 C 
ATOM      5  H   UNL     1     -17.945  -5.304   2.553  0.00  0.00    +0.000 HD
ATOM      6  H   UNL     1     -20.642  -3.810   2.546  0.00  0.00    +0.000 HD
BRANCH   4   7
ATOM      7  C   UNL     1     -19.467  -3.974   0.695  0.00  0.00    +0.000 C 
ATOM      8  H   UNL     1     -20.077  -3.136   0.346  0.00  0.00    +0.000 HD
ATOM      9  H   UNL     1     -19.704  -4.849   0.081  0.00  0.00    +0.000 HD
ATOM     10  H   UNL     1     -18.413  -3.723   0.536  0.00  0.00    +0.000 HD
ENDBRANCH   4   7
ENDBRANCH   2   3
BRANCH   2  11
ATOM     11  O   UNL     1     -20.441  -4.584   4.581  0.00  0.00    +0.000 OA
BRANCH  11  12
ATOM     12  C   UNL     1     -20.558  -3.682   5.687  0.00  0.00    +0.000 C 
ATOM     13  H   UNL     1     -21.389  -3.996   6.327  0.00  0.00    +0.000 HD
ATOM     14  H   UNL     1     -19.628  -3.693   6.266  0.00  0.00    +0.000 HD
BRANCH  12  15
ATOM     15  C   UNL     1     -20.816  -2.286   5.159  0.00  0.00    +0.000 C 
ATOM     16  H   UNL     1     -20.653  -1.537   5.939  0.00  0.00    +0.000 HD
ATOM     17  H   UNL     1     -20.156  -2.066   4.313  0.00  0.00    +0.000 HD
ATOM     18  H   UNL     1     -21.843  -2.198   4.792  0.00  0.00    +0.000 HD
ENDBRANCH  12  15
ENDBRANCH  11  12
ENDBRANCH   2  11
TORSDOF 5
ENDMDL
MODEL 7
REMARK VINA RESULT:    -3.423     27.573     28.147
REMARK INTER + INTRA:          -4.343
REMARK INTER:                  -4.238
REMARK INTRA:                  -0.105
REMARK UNBOUND:                -0.120
REMARK  Name = 429065
REMARK  5 active torsions:
REMARK  status: ('A' for Active; 'I' for Inactive)
REMARK    1  A    between atoms: O_1  and  C_3
REMARK    2  A    between atoms: O_1  and  C_5
REMARK    3  A    between atoms: C_3  and  C_4
REMARK    4  A    between atoms: C_5  and  C_6
REMARK    5  A    between atoms: C_7  and  C_8
REMARK                            x       y       z     vdW  Elec       q    Type
REMARK                         _______ _______ _______ _____ _____    ______ ____
ROOT
ATOM      1  O   UNL     1     -20.243  -0.014   5.614  0.00  0.00    +0.000 OA
ATOM      2  C   UNL     1     -20.529  -0.852   6.455  0.00  0.00    +0.000 C 
ENDROOT
BRANCH   2   3
ATOM      3  C   UNL     1     -21.142  -0.571   7.771  0.00  0.00    +0.000 C 
ATOM      4  C   UNL     1     -22.392  -0.978   8.028  0.00  0.00    +0.000 C 
ATOM      5  H   UNL     1     -20.558  -0.034   8.511  0.00  0.00    +0.000 HD
ATOM      6  H   UNL     1     -22.964  -1.515   7.276  0.00  0.00    +0.000 HD
BRANCH   4   7
ATOM      7  C   UNL     1     -23.083  -0.735   9.329  0.00  0.00    +0.000 C 
ATOM      8  H   UNL     1     -22.606  -1.320  10.119  0.00  0.00    +0.000 HD
ATOM      9  H   UNL     1     -24.143  -1.008   9.293  0.00  0.00    +0.000 HD
ATOM     10  H   UNL     1     -23.013   0.324   9.594  0.00  0.00    +0.000 HD
ENDBRANCH   4   7
ENDBRANCH   2   3
BRANCH   2  11
ATOM     11  O   UNL     1     -20.348  -2.197   6.363  0.00  0.00    +0.000 OA
BRANCH  11  12
ATOM     12  C   UNL     1     -20.791  -2.796   5.140  0.00  0.00    +0.000 C 
ATOM     13  H   UNL     1     -21.885  -2.807   5.115  0.00  0.00    +0.000 HD
ATOM     14  H   UNL     1     -20.412  -2.214   4.292  0.00  0.00    +0.000 HD
BRANCH  12  15
ATOM     15  C   UNL     1     -20.262  -4.213   5.065  0.00  0.00    +0.000 C 
ATOM     16  H   UNL     1     -19.586  -4.333   4.213  0.00  0.00    +0.000 HD
ATOM     17  H   UNL     1     -19.724  -4.472   5.983  0.00  0.00    +0.000 HD
ATOM     18  H   UNL     1     -21.086  -4.926   4.967  0.00  0.00    +0.000 HD
ENDBRANCH  12  15
ENDBRANCH  11  12
ENDBRANCH   2  11
TORSDOF 5
ENDMDL
MODEL 8
REMARK VINA RESULT:    -3.404     13.558     14.081
REMARK INTER + INTRA:          -4.320
REMARK INTER:                  -4.219
REMARK INTRA:                  -0.101
REMARK UNBOUND:                -0.120
REMARK  Name = 429065
REMARK  5 active torsions:
REMARK  status: ('A' for Active; 'I' for Inactive)
REMARK    1  A    between atoms: O_1  and  C_3
REMARK    2  A    between atoms: O_1  and  C_5
REMARK    3  A    between atoms: C_3  and  C_4
REMARK    4  A    between atoms: C_5  and  C_6
REMARK    5  A    between atoms: C_7  and  C_8
REMARK                            x       y       z     vdW  Elec       q    Type
REMARK                         _______ _______ _______ _____ _____    ______ ____
ROOT
ATOM      1  O   UNL     1     -10.551  10.205   7.427  0.00  0.00    +0.000 OA
ATOM      2  C   UNL     1      -9.339  10.052   7.432  0.00  0.00    +0.000 C 
ENDROOT
BRANCH   2   3
ATOM      3  C   UNL     1      -8.363  10.921   6.741  0.00  0.00    +0.000 C 
ATOM      4  C   UNL     1      -8.236  10.859   5.409  0.00  0.00    +0.000 C 
ATOM      5  H   UNL     1      -7.760  11.600   7.336  0.00  0.00    +0.000 HD
ATOM      6  H   UNL     1      -8.846  10.173   4.828  0.00  0.00    +0.000 HD
BRANCH   4   7
ATOM      7  C   UNL     1      -7.275  11.700   4.636  0.00  0.00    +0.000 C 
ATOM      8  H   UNL     1      -6.914  12.523   5.260  0.00  0.00    +0.000 HD
ATOM      9  H   UNL     1      -7.727  12.127   3.735  0.00  0.00    +0.000 HD
ATOM     10  H   UNL     1      -6.414  11.096   4.332  0.00  0.00    +0.000 HD
ENDBRANCH   4   7
ENDBRANCH   2   3
BRANCH   2  11
ATOM     11  O   UNL     1      -8.642   9.067   8.061  0.00  0.00    +0.000 OA
BRANCH  11  12
ATOM     12  C   UNL     1      -7.963   9.462   9.258  0.00  0.00    +0.000 C 
ATOM     13  H   UNL     1      -6.883   9.463   9.080  0.00  0.00    +0.000 HD
ATOM     14  H   UNL     1      -8.285  10.470   9.544  0.00  0.00    +0.000 HD
BRANCH  12  15
ATOM     15  C   UNL     1      -8.300   8.483  10.362  0.00  0.00    +0.000 C 
ATOM     16  H   UNL     1      -8.823   8.984  11.182  0.00  0.00    +0.000 HD
ATOM     17  H   UNL     1      -8.934   7.675   9.980  0.00  0.00    +0.000 HD
ATOM     18  H   UNL     1      -7.392   8.016  10.754  0.00  0.00    +0.000 HD
ENDBRANCH  12  15
ENDBRANCH  11  12
ENDBRANCH   2  11
TORSDOF 5
ENDMDL
MODEL 9
REMARK VINA RESULT:    -3.403     17.843     18.943
REMARK INTER + INTRA:          -4.318
REMARK INTER:                  -4.198
REMARK INTRA:                  -0.120
REMARK UNBOUND:                -0.120
REMARK  Name = 429065
REMARK  5 active torsions:
REMARK  status: ('A' for Active; 'I' for Inactive)
REMARK    1  A    between atoms: O_1  and  C_3
REMARK    2  A    between atoms: O_1  and  C_5
REMARK    3  A    between atoms: C_3  and  C_4
REMARK    4  A    between atoms: C_5  and  C_6
REMARK    5  A    between atoms: C_7  and  C_8
REMARK                            x       y       z     vdW  Elec       q    Type
REMARK                         _______ _______ _______ _____ _____    ______ ____
ROOT
ATOM      1  O   UNL     1       3.635  -2.405 -13.557  0.00  0.00    +0.000 OA
ATOM      2  C   UNL     1       3.899  -1.245 -13.833  0.00  0.00    +0.000 C 
ENDROOT
BRANCH   2   3
ATOM      3  C   UNL     1       2.975  -0.099 -13.687  0.00  0.00    +0.000 C 
ATOM      4  C   UNL     1       1.968  -0.159 -12.806  0.00  0.00    +0.000 C 
ATOM      5  H   UNL     1       3.135   0.778 -14.305  0.00  0.00    +0.000 HD
ATOM      6  H   UNL     1       1.820  -1.045 -12.195  0.00  0.00    +0.000 HD
BRANCH   4   7
ATOM      7  C   UNL     1       0.992   0.952 -12.599  0.00  0.00    +0.000 C 
ATOM      8  H   UNL     1       1.371   1.871 -13.055  0.00  0.00    +0.000 HD
ATOM      9  H   UNL     1       0.806   1.149 -11.538  0.00  0.00    +0.000 HD
ATOM     10  H   UNL     1       0.037   0.702 -13.071  0.00  0.00    +0.000 HD
ENDBRANCH   4   7
ENDBRANCH   2   3
BRANCH   2  11
ATOM     11  O   UNL     1       5.074  -0.767 -14.325  0.00  0.00    +0.000 OA
BRANCH  11  12
ATOM     12  C   UNL     1       5.026  -0.283 -15.671  0.00  0.00    +0.000 C 
ATOM     13  H   UNL     1       3.985  -0.242 -16.007  0.00  0.00    +0.000 HD
ATOM     14  H   UNL     1       5.461   0.722 -15.712  0.00  0.00    +0.000 HD
BRANCH  12  15
ATOM     15  C   UNL     1       5.815  -1.220 -16.560  0.00  0.00    +0.000 C 
ATOM     16  H   UNL     1       6.157  -2.095 -16.000  0.00  0.00    +0.000 HD
ATOM     17  H   UNL     1       5.203  -1.557 -17.404  0.00  0.00    +0.000 HD
ATOM     18  H   UNL     1       6.685  -0.708 -16.983  0.00  0.00    +0.000 HD
ENDBRANCH  12  15
ENDBRANCH  11  12
ENDBRANCH   2  11
TORSDOF 5
ENDMDL
MODEL 10
REMARK VINA RESULT:    -3.390     13.708     14.619
REMARK INTER + INTRA:          -4.302
REMARK INTER:                  -4.125
REMARK INTRA:                  -0.177
REMARK UNBOUND:                -0.120
REMARK  Name = 429065
REMARK  5 active torsions:
REMARK  status: ('A' for Active; 'I' for Inactive)
REMARK    1  A    between atoms: O_1  and  C_3
REMARK    2  A    between atoms: O_1  and  C_5
REMARK    3  A    between atoms: C_3  and  C_4
REMARK    4  A    between atoms: C_5  and  C_6
REMARK    5  A    between atoms: C_7  and  C_8
REMARK                            x       y       z     vdW  Elec       q    Type
REMARK                         _______ _______ _______ _____ _____    ______ ____
ROOT
ATOM      1  O   UNL     1      -0.952  10.149 -10.249  0.00  0.00    +0.000 OA
ATOM      2  C   UNL     1      -1.672   9.673 -11.112  0.00  0.00    +0.000 C 
ENDROOT
BRANCH   2   3
ATOM      3  C   UNL     1      -1.354   9.609 -12.555  0.00  0.00    +0.000 C 
ATOM      4  C   UNL     1      -0.181   9.105 -12.959  0.00  0.00    +0.000 C 
ATOM      5  H   UNL     1      -2.087   9.979 -13.264  0.00  0.00    +0.000 HD
ATOM      6  H   UNL     1       0.543   8.740 -12.237  0.00  0.00    +0.000 HD
BRANCH   4   7
ATOM      7  C   UNL     1       0.218   9.006 -14.395  0.00  0.00    +0.000 C 
ATOM      8  H   UNL     1       1.114   9.607 -14.575  0.00  0.00    +0.000 HD
ATOM      9  H   UNL     1      -0.569   9.355 -15.070  0.00  0.00    +0.000 HD
ATOM     10  H   UNL     1       0.446   7.965 -14.647  0.00  0.00    +0.000 HD
ENDBRANCH   4   7
ENDBRANCH   2   3
BRANCH   2  11
ATOM     11  O   UNL     1      -2.899   9.111 -10.935  0.00  0.00    +0.000 OA
BRANCH  11  12
ATOM     12  C   UNL     1      -2.988   8.147  -9.880  0.00  0.00    +0.000 C 
ATOM     13  H   UNL     1      -2.216   8.354  -9.131  0.00  0.00    +0.000 HD
ATOM     14  H   UNL     1      -3.976   8.209  -9.412  0.00  0.00    +0.000 HD
BRANCH  12  15
ATOM     15  C   UNL     1      -2.782   6.763 -10.459  0.00  0.00    +0.000 C 
ATOM     16  H   UNL     1      -1.807   6.359 -10.169  0.00  0.00    +0.000 HD
ATOM     17  H   UNL     1      -3.565   6.080 -10.112  0.00  0.00    +0.000 HD
ATOM     18  H   UNL     1      -2.844   6.789 -11.551  0.00  0.00    +0.000 HD
ENDBRANCH  12  15
ENDBRANCH  11  12
ENDBRANCH   2  11
TORSDOF 5
ENDMDL
