MODEL 1
REMARK VINA RESULT:    -4.848      0.000      0.000
REMARK INTER + INTRA:          -7.374
REMARK INTER:                  -6.824
REMARK INTRA:                  -0.550
REMARK UNBOUND:                -0.685
REMARK  Name = 7334
REMARK  9 active torsions:
REMARK  status: ('A' for Active; 'I' for Inactive)
REMARK    1  A    between atoms: O_1  and  C_9
REMARK    2  A    between atoms: O_1  and  C_13
REMARK    3  A    between atoms: C_3  and  C_6
REMARK    4  A    between atoms: C_3  and  C_7
REMARK    5  A    between atoms: C_4  and  C_8
REMARK    6  A    between atoms: C_5  and  C_9
REMARK    7  A    between atoms: C_10  and  C_11
REMARK    8  A    between atoms: C_10  and  C_12
REMARK    9  A    between atoms: C_13  and  C_14
REMARK                            x       y       z     vdW  Elec       q    Type
REMARK                         _______ _______ _______ _____ _____    ______ ____
ROOT
ATOM      1  C   UNL     1     -10.159  10.008   8.383  0.00  0.00    +0.000 C 
ATOM      2  C   UNL     1      -8.832  10.566   7.999  0.00  0.00    +0.000 C 
ATOM      3  C   UNL     1      -8.901   9.260   8.716  0.00  0.00    +0.000 C 
ATOM      4  H   UNL     1      -8.461  11.426   8.548  0.00  0.00    +0.000 HD
ATOM      5  H   UNL     1      -8.696   8.358   8.146  0.00  0.00    +0.000 HD
ENDROOT
BRANCH   1   6
ATOM      6  C   UNL     1     -10.896  10.712   9.473  0.00  0.00    +0.000 C 
ATOM      7  H   UNL     1     -10.533  11.730   9.651  0.00  0.00    +0.000 HD
ATOM      8  H   UNL     1     -11.959  10.791   9.225  0.00  0.00    +0.000 HD
ATOM      9  H   UNL     1     -10.810  10.158  10.415  0.00  0.00    +0.000 HD
ENDBRANCH   1   6
BRANCH   1  10
ATOM     10  C   UNL     1     -11.055   9.413   7.348  0.00  0.00    +0.000 C 
ATOM     11  H   UNL     1     -12.077   9.318   7.731  0.00  0.00    +0.000 HD
ATOM     12  H   UNL     1     -11.096   9.999   6.424  0.00  0.00    +0.000 HD
ATOM     13  H   UNL     1     -10.706   8.411   7.072  0.00  0.00    +0.000 HD
ENDBRANCH   1  10
BRANCH   2  14
ATOM     14  C   UNL     1      -8.414  10.556   6.584  0.00  0.00    +0.000 C 
ATOM     15  C   UNL     1      -7.836  11.554   5.889  0.00  0.00    +0.000 C 
ATOM     16  H   UNL     1      -8.593   9.619   6.058  0.00  0.00    +0.000 HD
BRANCH  15  17
ATOM     17  C   UNL     1      -7.470  11.382   4.441  0.00  0.00    +0.000 C 
ATOM     18  H   UNL     1      -8.042  10.557   4.001  0.00  0.00    +0.000 HD
ATOM     19  H   UNL     1      -7.694  12.296   3.882  0.00  0.00    +0.000 HD
ATOM     20  H   UNL     1      -6.408  11.159   4.302  0.00  0.00    +0.000 HD
ENDBRANCH  15  17
BRANCH  15  21
ATOM     21  C   UNL     1      -7.509  12.899   6.473  0.00  0.00    +0.000 C 
ATOM     22  H   UNL     1      -6.884  12.781   7.364  0.00  0.00    +0.000 HD
ATOM     23  H   UNL     1      -6.963  13.504   5.743  0.00  0.00    +0.000 HD
ATOM     24  H   UNL     1      -8.399  13.463   6.768  0.00  0.00    +0.000 HD
ENDBRANCH  15  21
ENDBRANCH   2  14
BRANCH   3  26
ATOM     25  O   UNL     1      -7.787  10.099  10.651  0.00  0.00    +0.000 OA
ATOM     26  C   UNL     1      -8.414   9.201  10.106  0.00  0.00    +0.000 C 
BRANCH  26  27
ATOM     27  O   UNL     1      -8.770   8.010  10.664  0.00  0.00    +0.000 OA
BRANCH  27  28
ATOM     28  C   UNL     1      -9.646   8.097  11.792  0.00  0.00    +0.000 C 
ATOM     29  H   UNL     1      -9.279   7.443  12.591  0.00  0.00    +0.000 HD
ATOM     30  H   UNL     1      -9.676   9.131  12.153  0.00  0.00    +0.000 HD
BRANCH  28  31
ATOM     31  C   UNL     1     -11.034   7.661  11.373  0.00  0.00    +0.000 C 
ATOM     32  H   UNL     1     -11.275   6.674  11.780  0.00  0.00    +0.000 HD
ATOM     33  H   UNL     1     -11.784   8.379  11.720  0.00  0.00    +0.000 HD
ATOM     34  H   UNL     1     -11.113   7.622  10.281  0.00  0.00    +0.000 HD
ENDBRANCH  28  31
ENDBRANCH  27  28
ENDBRANCH  26  27
ENDBRANCH   3  26
TORSDOF 9
ENDMDL
MODEL 2
REMARK VINA RESULT:    -4.780     18.756     21.191
REMARK INTER + INTRA:          -7.281
REMARK INTER:                  -7.062
REMARK INTRA:                  -0.219
REMARK UNBOUND:                -0.685
REMARK  Name = 7334
REMARK  9 active torsions:
REMARK  status: ('A' for Active; 'I' for Inactive)
REMARK    1  A    between atoms: O_1  and  C_9
REMARK    2  A    between atoms: O_1  and  C_13
REMARK    3  A    between atoms: C_3  and  C_6
REMARK    4  A    between atoms: C_3  and  C_7
REMARK    5  A    between atoms: C_4  and  C_8
REMARK    6  A    between atoms: C_5  and  C_9
REMARK    7  A    between atoms: C_10  and  C_11
REMARK    8  A    between atoms: C_10  and  C_12
REMARK    9  A    between atoms: C_13  and  C_14
REMARK                            x       y       z     vdW  Elec       q    Type
REMARK                         _______ _______ _______ _____ _____    ______ ____
ROOT
ATOM      1  C   UNL     1      -3.049   8.523 -10.215  0.00  0.00    +0.000 C 
ATOM      2  C   UNL     1      -3.907   7.360 -10.576  0.00  0.00    +0.000 C 
ATOM      3  C   UNL     1      -2.430   7.267 -10.753  0.00  0.00    +0.000 C 
ATOM      4  H   UNL     1      -4.521   7.435 -11.469  0.00  0.00    +0.000 HD
ATOM      5  H   UNL     1      -1.874   6.650 -10.052  0.00  0.00    +0.000 HD
ENDROOT
BRANCH   1   6
ATOM      6  C   UNL     1      -3.136   9.724 -11.096  0.00  0.00    +0.000 C 
ATOM      7  H   UNL     1      -3.491   9.492 -12.107  0.00  0.00    +0.000 HD
ATOM      8  H   UNL     1      -3.833  10.456 -10.674  0.00  0.00    +0.000 HD
ATOM      9  H   UNL     1      -2.157  10.205 -11.189  0.00  0.00    +0.000 HD
ENDBRANCH   1   6
BRANCH   1  10
ATOM     10  C   UNL     1      -2.791   8.855  -8.783  0.00  0.00    +0.000 C 
ATOM     11  H   UNL     1      -2.806   7.948  -8.167  0.00  0.00    +0.000 HD
ATOM     12  H   UNL     1      -1.829   9.354  -8.621  0.00  0.00    +0.000 HD
ATOM     13  H   UNL     1      -3.565   9.530  -8.403  0.00  0.00    +0.000 HD
ENDBRANCH   1  10
BRANCH   2  14
ATOM     14  C   UNL     1      -4.528   6.550  -9.511  0.00  0.00    +0.000 C 
ATOM     15  C   UNL     1      -5.768   6.022  -9.494  0.00  0.00    +0.000 C 
ATOM     16  H   UNL     1      -3.892   6.356  -8.648  0.00  0.00    +0.000 HD
BRANCH  15  17
ATOM     17  C   UNL     1      -6.252   5.214  -8.322  0.00  0.00    +0.000 C 
ATOM     18  H   UNL     1      -5.741   5.532  -7.407  0.00  0.00    +0.000 HD
ATOM     19  H   UNL     1      -7.330   5.354  -8.185  0.00  0.00    +0.000 HD
ATOM     20  H   UNL     1      -6.069   4.143  -8.449  0.00  0.00    +0.000 HD
ENDBRANCH  15  17
BRANCH  15  21
ATOM     21  C   UNL     1      -6.760   6.183 -10.611  0.00  0.00    +0.000 C 
ATOM     22  H   UNL     1      -6.481   7.032 -11.244  0.00  0.00    +0.000 HD
ATOM     23  H   UNL     1      -6.779   5.281 -11.230  0.00  0.00    +0.000 HD
ATOM     24  H   UNL     1      -7.778   6.360 -10.254  0.00  0.00    +0.000 HD
ENDBRANCH  15  21
ENDBRANCH   2  14
BRANCH   3  26
ATOM     25  O   UNL     1      -2.567   6.985 -13.117  0.00  0.00    +0.000 OA
ATOM     26  C   UNL     1      -1.893   7.227 -12.125  0.00  0.00    +0.000 C 
BRANCH  26  27
ATOM     27  O   UNL     1      -0.557   7.497 -12.101  0.00  0.00    +0.000 OA
BRANCH  27  28
ATOM     28  C   UNL     1      -0.195   8.843 -12.423  0.00  0.00    +0.000 C 
ATOM     29  H   UNL     1      -1.018   9.516 -12.156  0.00  0.00    +0.000 HD
ATOM     30  H   UNL     1       0.702   9.124 -11.860  0.00  0.00    +0.000 HD
BRANCH  28  31
ATOM     31  C   UNL     1       0.082   8.937 -13.908  0.00  0.00    +0.000 C 
ATOM     32  H   UNL     1       0.275   7.948 -14.334  0.00  0.00    +0.000 HD
ATOM     33  H   UNL     1      -0.769   9.387 -14.431  0.00  0.00    +0.000 HD
ATOM     34  H   UNL     1       0.948   9.580 -14.098  0.00  0.00    +0.000 HD
ENDBRANCH  28  31
ENDBRANCH  27  28
ENDBRANCH  26  27
ENDBRANCH   3  26
TORSDOF 9
ENDMDL
MODEL 3
REMARK VINA RESULT:    -4.668     17.070     19.220
REMARK INTER + INTRA:          -7.126
REMARK INTER:                  -6.473
REMARK INTRA:                  -0.653
REMARK UNBOUND:                -0.685
REMARK  Name = 7334
REMARK  9 active torsions:
REMARK  status: ('A' for Active; 'I' for Inactive)
REMARK    1  A    between atoms: O_1  and  C_9
REMARK    2  A    between atoms: O_1  and  C_13
REMARK    3  A    between atoms: C_3  and  C_6
REMARK    4  A    between atoms: C_3  and  C_7
REMARK    5  A    between atoms: C_4  and  C_8
REMARK    6  A    between atoms: C_5  and  C_9
REMARK    7  A    between atoms: C_10  and  C_11
REMARK    8  A    between atoms: C_10  and  C_12
REMARK    9  A    between atoms: C_13  and  C_14
REMARK                            x       y       z     vdW  Elec       q    Type
REMARK                         _______ _______ _______ _____ _____    ______ ____
ROOT
ATOM      1  C   UNL     1     -19.534  -4.787   3.748  0.00  0.00    +0.000 C 
ATOM      2  C   UNL     1     -20.430  -3.644   4.076  0.00  0.00    +0.000 C 
ATOM      3  C   UNL     1     -21.021  -4.932   3.616  0.00  0.00    +0.000 C 
ATOM      4  H   UNL     1     -20.456  -2.801   3.391  0.00  0.00    +0.000 HD
ATOM      5  H   UNL     1     -21.525  -5.550   4.354  0.00  0.00    +0.000 HD
ENDROOT
BRANCH   1   6
ATOM      6  C   UNL     1     -18.704  -4.660   2.514  0.00  0.00    +0.000 C 
ATOM      7  H   UNL     1     -19.301  -4.523   1.606  0.00  0.00    +0.000 HD
ATOM      8  H   UNL     1     -18.037  -3.794   2.591  0.00  0.00    +0.000 HD
ATOM      9  H   UNL     1     -18.084  -5.551   2.374  0.00  0.00    +0.000 HD
ENDBRANCH   1   6
BRANCH   1  10
ATOM     10  C   UNL     1     -18.865  -5.558   4.837  0.00  0.00    +0.000 C 
ATOM     11  H   UNL     1     -18.733  -6.605   4.545  0.00  0.00    +0.000 HD
ATOM     12  H   UNL     1     -17.881  -5.158   5.107  0.00  0.00    +0.000 HD
ATOM     13  H   UNL     1     -19.475  -5.538   5.748  0.00  0.00    +0.000 HD
ENDBRANCH   1  10
BRANCH   2  14
ATOM     14  C   UNL     1     -20.635  -3.253   5.484  0.00  0.00    +0.000 C 
ATOM     15  C   UNL     1     -20.748  -2.008   5.986  0.00  0.00    +0.000 C 
ATOM     16  H   UNL     1     -20.713  -4.083   6.186  0.00  0.00    +0.000 HD
BRANCH  15  17
ATOM     17  C   UNL     1     -20.955  -1.780   7.458  0.00  0.00    +0.000 C 
ATOM     18  H   UNL     1     -20.403  -0.892   7.784  0.00  0.00    +0.000 HD
ATOM     19  H   UNL     1     -22.018  -1.626   7.672  0.00  0.00    +0.000 HD
ATOM     20  H   UNL     1     -20.612  -2.624   8.064  0.00  0.00    +0.000 HD
ENDBRANCH  15  17
BRANCH  15  21
ATOM     21  C   UNL     1     -20.680  -0.761   5.151  0.00  0.00    +0.000 C 
ATOM     22  H   UNL     1     -21.690  -0.395   4.937  0.00  0.00    +0.000 HD
ATOM     23  H   UNL     1     -20.134   0.021   5.686  0.00  0.00    +0.000 HD
ATOM     24  H   UNL     1     -20.178  -0.917   4.192  0.00  0.00    +0.000 HD
ENDBRANCH  15  21
ENDBRANCH   2  14
BRANCH   3  26
ATOM     25  O   UNL     1     -21.743  -5.985   1.601  0.00  0.00    +0.000 OA
ATOM     26  C   UNL     1     -21.652  -4.974   2.284  0.00  0.00    +0.000 C 
BRANCH  26  27
ATOM     27  O   UNL     1     -22.102  -3.732   1.952  0.00  0.00    +0.000 OA
BRANCH  27  28
ATOM     28  C   UNL     1     -21.685  -3.246   0.673  0.00  0.00    +0.000 C 
ATOM     29  H   UNL     1     -21.032  -3.986   0.197  0.00  0.00    +0.000 HD
ATOM     30  H   UNL     1     -22.565  -3.078   0.042  0.00  0.00    +0.000 HD
BRANCH  28  31
ATOM     31  C   UNL     1     -20.933  -1.946   0.860  0.00  0.00    +0.000 C 
ATOM     32  H   UNL     1     -19.879  -2.060   0.590  0.00  0.00    +0.000 HD
ATOM     33  H   UNL     1     -21.372  -1.155   0.243  0.00  0.00    +0.000 HD
ATOM     34  H   UNL     1     -20.997  -1.610   1.901  0.00  0.00    +0.000 HD
ENDBRANCH  28  31
ENDBRANCH  27  28
ENDBRANCH  26  27
ENDBRANCH   3  26
TORSDOF 9
ENDMDL
MODEL 4
REMARK VINA RESULT:    -4.544      2.145      3.696
REMARK INTER + INTRA:          -6.955
REMARK INTER:                  -6.384
REMARK INTRA:                  -0.571
REMARK UNBOUND:                -0.685
REMARK  Name = 7334
REMARK  9 active torsions:
REMARK  status: ('A' for Active; 'I' for Inactive)
REMARK    1  A    between atoms: O_1  and  C_9
REMARK    2  A    between atoms: O_1  and  C_13
REMARK    3  A    between atoms: C_3  and  C_6
REMARK    4  A    between atoms: C_3  and  C_7
REMARK    5  A    between atoms: C_4  and  C_8
REMARK    6  A    between atoms: C_5  and  C_9
REMARK    7  A    between atoms: C_10  and  C_11
REMARK    8  A    between atoms: C_10  and  C_12
REMARK    9  A    between atoms: C_13  and  C_14
REMARK                            x       y       z     vdW  Elec       q    Type
REMARK                         _______ _______ _______ _____ _____    ______ ____
ROOT
ATOM      1  C   UNL     1      -8.093  10.505   8.788  0.00  0.00    +0.000 C 
ATOM      2  C   UNL     1      -8.417  10.973   7.412  0.00  0.00    +0.000 C 
ATOM      3  C   UNL     1      -9.376  11.235   8.522  0.00  0.00    +0.000 C 
ATOM      4  H   UNL     1      -8.692  10.229   6.670  0.00  0.00    +0.000 HD
ATOM      5  H   UNL     1      -9.454  12.253   8.896  0.00  0.00    +0.000 HD
ENDROOT
BRANCH   1   6
ATOM      6  C   UNL     1      -8.130   9.033   9.025  0.00  0.00    +0.000 C 
ATOM      7  H   UNL     1      -7.637   8.734   9.957  0.00  0.00    +0.000 HD
ATOM      8  H   UNL     1      -9.166   8.683   9.086  0.00  0.00    +0.000 HD
ATOM      9  H   UNL     1      -7.642   8.498   8.203  0.00  0.00    +0.000 HD
ENDBRANCH   1   6
BRANCH   1  10
ATOM     10  C   UNL     1      -7.059  11.212   9.601  0.00  0.00    +0.000 C 
ATOM     11  H   UNL     1      -6.136  10.624   9.649  0.00  0.00    +0.000 HD
ATOM     12  H   UNL     1      -6.806  12.204   9.210  0.00  0.00    +0.000 HD
ATOM     13  H   UNL     1      -7.416  11.358  10.627  0.00  0.00    +0.000 HD
ENDBRANCH   1  10
BRANCH   2  14
ATOM     14  C   UNL     1      -7.693  12.124   6.839  0.00  0.00    +0.000 C 
ATOM     15  C   UNL     1      -7.267  12.281   5.571  0.00  0.00    +0.000 C 
ATOM     16  H   UNL     1      -7.497  12.938   7.535  0.00  0.00    +0.000 HD
BRANCH  15  17
ATOM     17  C   UNL     1      -6.537  13.524   5.145  0.00  0.00    +0.000 C 
ATOM     18  H   UNL     1      -6.686  13.703   4.074  0.00  0.00    +0.000 HD
ATOM     19  H   UNL     1      -6.911  14.392   5.698  0.00  0.00    +0.000 HD
ATOM     20  H   UNL     1      -5.459  13.456   5.322  0.00  0.00    +0.000 HD
ENDBRANCH  15  17
BRANCH  15  21
ATOM     21  C   UNL     1      -7.473  11.260   4.488  0.00  0.00    +0.000 C 
ATOM     22  H   UNL     1      -7.069  10.291   4.801  0.00  0.00    +0.000 HD
ATOM     23  H   UNL     1      -8.541  11.140   4.281  0.00  0.00    +0.000 HD
ATOM     24  H   UNL     1      -6.984  11.531   3.548  0.00  0.00    +0.000 HD
ENDBRANCH  15  21
ENDBRANCH   2  14
BRANCH   3  26
ATOM     25  O   UNL     1     -11.384  10.396   9.501  0.00  0.00    +0.000 OA
ATOM     26  C   UNL     1     -10.660  10.510   8.521  0.00  0.00    +0.000 C 
BRANCH  26  27
ATOM     27  O   UNL     1     -10.897  10.004   7.278  0.00  0.00    +0.000 OA
BRANCH  27  28
ATOM     28  C   UNL     1     -12.075  10.491   6.629  0.00  0.00    +0.000 C 
ATOM     29  H   UNL     1     -12.531   9.684   6.044  0.00  0.00    +0.000 HD
ATOM     30  H   UNL     1     -12.789  10.841   7.383  0.00  0.00    +0.000 HD
BRANCH  28  31
ATOM     31  C   UNL     1     -11.697  11.636   5.713  0.00  0.00    +0.000 C 
ATOM     32  H   UNL     1     -10.999  11.303   4.939  0.00  0.00    +0.000 HD
ATOM     33  H   UNL     1     -12.586  12.054   5.232  0.00  0.00    +0.000 HD
ATOM     34  H   UNL     1     -11.232  12.448   6.283  0.00  0.00    +0.000 HD
ENDBRANCH  28  31
ENDBRANCH  27  28
ENDBRANCH  26  27
ENDBRANCH   3  26
TORSDOF 9
ENDMDL
MODEL 5
REMARK VINA RESULT:    -4.431     23.366     26.160
REMARK INTER + INTRA:          -6.799
REMARK INTER:                  -6.044
REMARK INTRA:                  -0.755
REMARK UNBOUND:                -0.685
REMARK  Name = 7334
REMARK  9 active torsions:
REMARK  status: ('A' for Active; 'I' for Inactive)
REMARK    1  A    between atoms: O_1  and  C_9
REMARK    2  A    between atoms: O_1  and  C_13
REMARK    3  A    between atoms: C_3  and  C_6
REMARK    4  A    between atoms: C_3  and  C_7
REMARK    5  A    between atoms: C_4  and  C_8
REMARK    6  A    between atoms: C_5  and  C_9
REMARK    7  A    between atoms: C_10  and  C_11
REMARK    8  A    between atoms: C_10  and  C_12
REMARK    9  A    between atoms: C_13  and  C_14
REMARK                            x       y       z     vdW  Elec       q    Type
REMARK                         _______ _______ _______ _____ _____    ______ ____
ROOT
ATOM      1  C   UNL     1      -0.414  -0.187 -14.042  0.00  0.00    +0.000 C 
ATOM      2  C   UNL     1       0.042  -0.398 -12.640  0.00  0.00    +0.000 C 
ATOM      3  C   UNL     1       0.560   0.766 -13.414  0.00  0.00    +0.000 C 
ATOM      4  H   UNL     1       0.725  -1.219 -12.442  0.00  0.00    +0.000 HD
ATOM      5  H   UNL     1       0.189   1.753 -13.154  0.00  0.00    +0.000 HD
ENDROOT
BRANCH   1   6
ATOM      6  C   UNL     1       0.075  -1.159 -15.063  0.00  0.00    +0.000 C 
ATOM      7  H   UNL     1       0.678  -0.690 -15.849  0.00  0.00    +0.000 HD
ATOM      8  H   UNL     1       0.704  -1.922 -14.592  0.00  0.00    +0.000 HD
ATOM      9  H   UNL     1      -0.767  -1.667 -15.546  0.00  0.00    +0.000 HD
ENDBRANCH   1   6
BRANCH   1  10
ATOM     10  C   UNL     1      -1.789   0.324 -14.319  0.00  0.00    +0.000 C 
ATOM     11  H   UNL     1      -2.352  -0.392 -14.928  0.00  0.00    +0.000 HD
ATOM     12  H   UNL     1      -2.368   0.519 -13.410  0.00  0.00    +0.000 HD
ATOM     13  H   UNL     1      -1.740   1.268 -14.872  0.00  0.00    +0.000 HD
ENDBRANCH   1  10
BRANCH   2  14
ATOM     14  C   UNL     1      -0.879  -0.128 -11.520  0.00  0.00    +0.000 C 
ATOM     15  C   UNL     1      -1.760  -0.975 -10.955  0.00  0.00    +0.000 C 
ATOM     16  H   UNL     1      -0.820   0.879 -11.107  0.00  0.00    +0.000 HD
BRANCH  15  17
ATOM     17  C   UNL     1      -2.635  -0.539  -9.812  0.00  0.00    +0.000 C 
ATOM     18  H   UNL     1      -2.992   0.483  -9.977  0.00  0.00    +0.000 HD
ATOM     19  H   UNL     1      -3.503  -1.201  -9.725  0.00  0.00    +0.000 HD
ATOM     20  H   UNL     1      -2.107  -0.554  -8.853  0.00  0.00    +0.000 HD
ENDBRANCH  15  17
BRANCH  15  21
ATOM     21  C   UNL     1      -1.951  -2.398 -11.396  0.00  0.00    +0.000 C 
ATOM     22  H   UNL     1      -1.080  -2.737 -11.966  0.00  0.00    +0.000 HD
ATOM     23  H   UNL     1      -2.071  -3.050 -10.525  0.00  0.00    +0.000 HD
ATOM     24  H   UNL     1      -2.831  -2.533 -12.031  0.00  0.00    +0.000 HD
ENDBRANCH  15  21
ENDBRANCH   2  14
BRANCH   3  26
ATOM     25  O   UNL     1       2.433   1.437 -14.731  0.00  0.00    +0.000 OA
ATOM     26  C   UNL     1       1.977   0.759 -13.820  0.00  0.00    +0.000 C 
BRANCH  26  27
ATOM     27  O   UNL     1       2.674  -0.107 -13.030  0.00  0.00    +0.000 OA
BRANCH  27  28
ATOM     28  C   UNL     1       3.695  -0.859 -13.693  0.00  0.00    +0.000 C 
ATOM     29  H   UNL     1       3.757  -0.546 -14.741  0.00  0.00    +0.000 HD
ATOM     30  H   UNL     1       4.658  -0.679 -13.202  0.00  0.00    +0.000 HD
BRANCH  28  31
ATOM     31  C   UNL     1       3.349  -2.331 -13.618  0.00  0.00    +0.000 C 
ATOM     32  H   UNL     1       2.378  -2.529 -14.080  0.00  0.00    +0.000 HD
ATOM     33  H   UNL     1       4.112  -2.932 -14.124  0.00  0.00    +0.000 HD
ATOM     34  H   UNL     1       3.320  -2.667 -12.575  0.00  0.00    +0.000 HD
ENDBRANCH  28  31
ENDBRANCH  27  28
ENDBRANCH  26  27
ENDBRANCH   3  26
TORSDOF 9
ENDMDL
MODEL 6
REMARK VINA RESULT:    -4.331     23.592     26.421
REMARK INTER + INTRA:          -6.661
REMARK INTER:                  -6.057
REMARK INTRA:                  -0.604
REMARK UNBOUND:                -0.685
REMARK  Name = 7334
REMARK  9 active torsions:
REMARK  status: ('A' for Active; 'I' for Inactive)
REMARK    1  A    between atoms: O_1  and  C_9
REMARK    2  A    between atoms: O_1  and  C_13
REMARK    3  A    between atoms: C_3  and  C_6
REMARK    4  A    between atoms: C_3  and  C_7
REMARK    5  A    between atoms: C_4  and  C_8
REMARK    6  A    between atoms: C_5  and  C_9
REMARK    7  A    between atoms: C_10  and  C_11
REMARK    8  A    between atoms: C_10  and  C_12
REMARK    9  A    between atoms: C_13  and  C_14
REMARK                            x       y       z     vdW  Elec       q    Type
REMARK                         _______ _______ _______ _____ _____    ______ ____
ROOT
ATOM      1  C   UNL     1       0.775   0.105 -13.092  0.00  0.00    +0.000 C 
ATOM      2  C   UNL     1      -0.319  -0.852 -12.764  0.00  0.00    +0.000 C 
ATOM      3  C   UNL     1       1.095  -1.324 -12.762  0.00  0.00    +0.000 C 
ATOM      4  H   UNL     1      -0.964  -1.188 -13.571  0.00  0.00    +0.000 HD
ATOM      5  H   UNL     1       1.563  -1.517 -11.801  0.00  0.00    +0.000 HD
ENDROOT
BRANCH   1   6
ATOM      6  C   UNL     1       0.868   0.561 -14.509  0.00  0.00    +0.000 C 
ATOM      7  H   UNL     1       0.594  -0.217 -15.231  0.00  0.00    +0.000 HD
ATOM      8  H   UNL     1       0.194   1.407 -14.682  0.00  0.00    +0.000 HD
ATOM      9  H   UNL     1       1.887   0.888 -14.742  0.00  0.00    +0.000 HD
ENDBRANCH   1   6
BRANCH   1  10
ATOM     10  C   UNL     1       1.188   1.144 -12.104  0.00  0.00    +0.000 C 
ATOM     11  H   UNL     1       0.699   2.100 -12.321  0.00  0.00    +0.000 HD
ATOM     12  H   UNL     1       0.953   0.874 -11.069  0.00  0.00    +0.000 HD
ATOM     13  H   UNL     1       2.271   1.305 -12.151  0.00  0.00    +0.000 HD
ENDBRANCH   1  10
BRANCH   2  14
ATOM     14  C   UNL     1      -1.016  -0.753 -11.468  0.00  0.00    +0.000 C 
ATOM     15  C   UNL     1      -2.331  -0.552 -11.252  0.00  0.00    +0.000 C 
ATOM     16  H   UNL     1      -0.379  -0.868 -10.592  0.00  0.00    +0.000 HD
BRANCH  15  17
ATOM     17  C   UNL     1      -2.886  -0.474  -9.857  0.00  0.00    +0.000 C 
ATOM     18  H   UNL     1      -2.367   0.303  -9.286  0.00  0.00    +0.000 HD
ATOM     19  H   UNL     1      -3.953  -0.229  -9.887  0.00  0.00    +0.000 HD
ATOM     20  H   UNL     1      -2.776  -1.416  -9.310  0.00  0.00    +0.000 HD
ENDBRANCH  15  17
BRANCH  15  21
ATOM     21  C   UNL     1      -3.343  -0.391 -12.350  0.00  0.00    +0.000 C 
ATOM     22  H   UNL     1      -3.966  -1.289 -12.423  0.00  0.00    +0.000 HD
ATOM     23  H   UNL     1      -3.991   0.465 -12.143  0.00  0.00    +0.000 HD
ATOM     24  H   UNL     1      -2.886  -0.229 -13.330  0.00  0.00    +0.000 HD
ENDBRANCH  15  21
ENDBRANCH   2  14
BRANCH   3  26
ATOM     25  O   UNL     1       0.757  -2.777 -14.624  0.00  0.00    +0.000 OA
ATOM     26  C   UNL     1       1.520  -2.257 -13.821  0.00  0.00    +0.000 C 
BRANCH  26  27
ATOM     27  O   UNL     1       2.870  -2.437 -13.756  0.00  0.00    +0.000 OA
BRANCH  27  28
ATOM     28  C   UNL     1       3.614  -1.915 -14.860  0.00  0.00    +0.000 C 
ATOM     29  H   UNL     1       4.296  -2.685 -15.238  0.00  0.00    +0.000 HD
ATOM     30  H   UNL     1       2.924  -1.618 -15.658  0.00  0.00    +0.000 HD
BRANCH  28  31
ATOM     31  C   UNL     1       4.408  -0.712 -14.396  0.00  0.00    +0.000 C 
ATOM     32  H   UNL     1       5.483  -0.889 -14.499  0.00  0.00    +0.000 HD
ATOM     33  H   UNL     1       4.137   0.175 -14.977  0.00  0.00    +0.000 HD
ATOM     34  H   UNL     1       4.186  -0.486 -13.347  0.00  0.00    +0.000 HD
ENDBRANCH  28  31
ENDBRANCH  27  28
ENDBRANCH  26  27
ENDBRANCH   3  26
TORSDOF 9
ENDMDL
MODEL 7
REMARK VINA RESULT:    -4.311      3.407      5.424
REMARK INTER + INTRA:          -6.634
REMARK INTER:                  -6.280
REMARK INTRA:                  -0.354
REMARK UNBOUND:                -0.685
REMARK  Name = 7334
REMARK  9 active torsions:
REMARK  status: ('A' for Active; 'I' for Inactive)
REMARK    1  A    between atoms: O_1  and  C_9
REMARK    2  A    between atoms: O_1  and  C_13
REMARK    3  A    between atoms: C_3  and  C_6
REMARK    4  A    between atoms: C_3  and  C_7
REMARK    5  A    between atoms: C_4  and  C_8
REMARK    6  A    between atoms: C_5  and  C_9
REMARK    7  A    between atoms: C_10  and  C_11
REMARK    8  A    between atoms: C_10  and  C_12
REMARK    9  A    between atoms: C_13  and  C_14
REMARK                            x       y       z     vdW  Elec       q    Type
REMARK                         _______ _______ _______ _____ _____    ______ ____
ROOT
ATOM      1  C   UNL     1      -7.477  12.753   4.925  0.00  0.00    +0.000 C 
ATOM      2  C   UNL     1      -8.593  13.535   4.322  0.00  0.00    +0.000 C 
ATOM      3  C   UNL     1      -8.671  13.126   5.754  0.00  0.00    +0.000 C 
ATOM      4  H   UNL     1      -9.247  13.032   3.615  0.00  0.00    +0.000 HD
ATOM      5  H   UNL     1      -8.529  13.896   6.508  0.00  0.00    +0.000 HD
ENDROOT
BRANCH   1   6
ATOM      6  C   UNL     1      -7.322  11.341   4.470  0.00  0.00    +0.000 C 
ATOM      7  H   UNL     1      -8.136  11.006   3.817  0.00  0.00    +0.000 HD
ATOM      8  H   UNL     1      -6.392  11.222   3.905  0.00  0.00    +0.000 HD
ATOM      9  H   UNL     1      -7.283  10.662   5.329  0.00  0.00    +0.000 HD
ENDBRANCH   1   6
BRANCH   1  10
ATOM     10  C   UNL     1      -6.182  13.418   5.253  0.00  0.00    +0.000 C 
ATOM     11  H   UNL     1      -6.351  14.318   5.854  0.00  0.00    +0.000 HD
ATOM     12  H   UNL     1      -5.491  12.770   5.804  0.00  0.00    +0.000 HD
ATOM     13  H   UNL     1      -5.666  13.721   4.334  0.00  0.00    +0.000 HD
ENDBRANCH   1  10
BRANCH   2  14
ATOM     14  C   UNL     1      -8.406  14.967   4.021  0.00  0.00    +0.000 C 
ATOM     15  C   UNL     1      -8.845  15.647   2.945  0.00  0.00    +0.000 C 
ATOM     16  H   UNL     1      -7.854  15.528   4.775  0.00  0.00    +0.000 HD
BRANCH  15  17
ATOM     17  C   UNL     1      -8.567  17.116   2.787  0.00  0.00    +0.000 C 
ATOM     18  H   UNL     1      -9.144  17.523   1.950  0.00  0.00    +0.000 HD
ATOM     19  H   UNL     1      -8.849  17.655   3.698  0.00  0.00    +0.000 HD
ATOM     20  H   UNL     1      -7.510  17.322   2.592  0.00  0.00    +0.000 HD
ENDBRANCH  15  17
BRANCH  15  21
ATOM     21  C   UNL     1      -9.633  15.025   1.827  0.00  0.00    +0.000 C 
ATOM     22  H   UNL     1      -9.726  15.729   0.993  0.00  0.00    +0.000 HD
ATOM     23  H   UNL     1      -9.128  14.124   1.466  0.00  0.00    +0.000 HD
ATOM     24  H   UNL     1     -10.644  14.737   2.128  0.00  0.00    +0.000 HD
ENDBRANCH  15  21
ENDBRANCH   2  14
BRANCH   3  26
ATOM     25  O   UNL     1     -10.448  11.586   5.351  0.00  0.00    +0.000 OA
ATOM     26  C   UNL     1      -9.664  12.106   6.134  0.00  0.00    +0.000 C 
BRANCH  26  27
ATOM     27  O   UNL     1      -9.564  11.846   7.469  0.00  0.00    +0.000 OA
BRANCH  27  28
ATOM     28  C   UNL     1      -8.463  11.017   7.854  0.00  0.00    +0.000 C 
ATOM     29  H   UNL     1      -7.583  11.277   7.255  0.00  0.00    +0.000 HD
ATOM     30  H   UNL     1      -8.241  11.175   8.915  0.00  0.00    +0.000 HD
BRANCH  28  31
ATOM     31  C   UNL     1      -8.832   9.568   7.618  0.00  0.00    +0.000 C 
ATOM     32  H   UNL     1      -8.625   8.962   8.505  0.00  0.00    +0.000 HD
ATOM     33  H   UNL     1      -9.894   9.476   7.367  0.00  0.00    +0.000 HD
ATOM     34  H   UNL     1      -8.269   9.159   6.771  0.00  0.00    +0.000 HD
ENDBRANCH  28  31
ENDBRANCH  27  28
ENDBRANCH  26  27
ENDBRANCH   3  26
TORSDOF 9
ENDMDL
MODEL 8
REMARK VINA RESULT:    -4.198     17.602     19.144
REMARK INTER + INTRA:          -6.478
REMARK INTER:                  -6.034
REMARK INTRA:                  -0.444
REMARK UNBOUND:                -0.685
REMARK  Name = 7334
REMARK  9 active torsions:
REMARK  status: ('A' for Active; 'I' for Inactive)
REMARK    1  A    between atoms: O_1  and  C_9
REMARK    2  A    between atoms: O_1  and  C_13
REMARK    3  A    between atoms: C_3  and  C_6
REMARK    4  A    between atoms: C_3  and  C_7
REMARK    5  A    between atoms: C_4  and  C_8
REMARK    6  A    between atoms: C_5  and  C_9
REMARK    7  A    between atoms: C_10  and  C_11
REMARK    8  A    between atoms: C_10  and  C_12
REMARK    9  A    between atoms: C_13  and  C_14
REMARK                            x       y       z     vdW  Elec       q    Type
REMARK                         _______ _______ _______ _____ _____    ______ ____
ROOT
ATOM      1  C   UNL     1     -16.060  -5.970  15.155  0.00  0.00    +0.000 C 
ATOM      2  C   UNL     1     -16.190  -5.728  16.619  0.00  0.00    +0.000 C 
ATOM      3  C   UNL     1     -15.235  -4.908  15.820  0.00  0.00    +0.000 C 
ATOM      4  H   UNL     1     -15.778  -6.468  17.299  0.00  0.00    +0.000 HD
ATOM      5  H   UNL     1     -15.503  -3.874  15.617  0.00  0.00    +0.000 HD
ENDROOT
BRANCH   1   6
ATOM      6  C   UNL     1     -15.405  -7.244  14.739  0.00  0.00    +0.000 C 
ATOM      7  H   UNL     1     -15.060  -7.848  15.586  0.00  0.00    +0.000 HD
ATOM      8  H   UNL     1     -16.104  -7.864  14.169  0.00  0.00    +0.000 HD
ATOM      9  H   UNL     1     -14.538  -7.040  14.101  0.00  0.00    +0.000 HD
ENDBRANCH   1   6
BRANCH   1  10
ATOM     10  C   UNL     1     -17.131  -5.519  14.218  0.00  0.00    +0.000 C 
ATOM     11  H   UNL     1     -17.915  -4.978  14.759  0.00  0.00    +0.000 HD
ATOM     12  H   UNL     1     -16.760  -4.864  13.422  0.00  0.00    +0.000 HD
ATOM     13  H   UNL     1     -17.596  -6.381  13.727  0.00  0.00    +0.000 HD
ENDBRANCH   1  10
BRANCH   2  14
ATOM     14  C   UNL     1     -17.397  -5.064  17.148  0.00  0.00    +0.000 C 
ATOM     15  C   UNL     1     -17.836  -5.045  18.421  0.00  0.00    +0.000 C 
ATOM     16  H   UNL     1     -17.985  -4.520  16.409  0.00  0.00    +0.000 HD
BRANCH  15  17
ATOM     17  C   UNL     1     -19.096  -4.317  18.798  0.00  0.00    +0.000 C 
ATOM     18  H   UNL     1     -19.674  -4.071  17.900  0.00  0.00    +0.000 HD
ATOM     19  H   UNL     1     -19.716  -4.943  19.449  0.00  0.00    +0.000 HD
ATOM     20  H   UNL     1     -18.895  -3.381  19.329  0.00  0.00    +0.000 HD
ENDBRANCH  15  17
BRANCH  15  21
ATOM     21  C   UNL     1     -17.132  -5.729  19.558  0.00  0.00    +0.000 C 
ATOM     22  H   UNL     1     -17.508  -6.752  19.674  0.00  0.00    +0.000 HD
ATOM     23  H   UNL     1     -16.056  -5.776  19.362  0.00  0.00    +0.000 HD
ATOM     24  H   UNL     1     -17.271  -5.218  20.515  0.00  0.00    +0.000 HD
ENDBRANCH  15  21
ENDBRANCH   2  14
BRANCH   3  26
ATOM     25  O   UNL     1     -12.925  -4.771  15.242  0.00  0.00    +0.000 OA
ATOM     26  C   UNL     1     -13.792  -5.110  16.037  0.00  0.00    +0.000 C 
BRANCH  26  27
ATOM     27  O   UNL     1     -13.591  -5.722  17.238  0.00  0.00    +0.000 OA
BRANCH  27  28
ATOM     28  C   UNL     1     -13.258  -4.852  18.324  0.00  0.00    +0.000 C 
ATOM     29  H   UNL     1     -12.187  -4.621  18.291  0.00  0.00    +0.000 HD
ATOM     30  H   UNL     1     -13.833  -3.924  18.237  0.00  0.00    +0.000 HD
BRANCH  28  31
ATOM     31  C   UNL     1     -13.593  -5.542  19.629  0.00  0.00    +0.000 C 
ATOM     32  H   UNL     1     -14.458  -6.202  19.513  0.00  0.00    +0.000 HD
ATOM     33  H   UNL     1     -12.741  -6.133  19.982  0.00  0.00    +0.000 HD
ATOM     34  H   UNL     1     -13.813  -4.805  20.409  0.00  0.00    +0.000 HD
ENDBRANCH  28  31
ENDBRANCH  27  28
ENDBRANCH  26  27
ENDBRANCH   3  26
TORSDOF 9
ENDMDL
MODEL 9
REMARK VINA RESULT:    -4.179     14.555     16.131
REMARK INTER + INTRA:          -6.451
REMARK INTER:                  -5.820
REMARK INTRA:                  -0.631
REMARK UNBOUND:                -0.685
REMARK  Name = 7334
REMARK  9 active torsions:
REMARK  status: ('A' for Active; 'I' for Inactive)
REMARK    1  A    between atoms: O_1  and  C_9
REMARK    2  A    between atoms: O_1  and  C_13
REMARK    3  A    between atoms: C_3  and  C_6
REMARK    4  A    between atoms: C_3  and  C_7
REMARK    5  A    between atoms: C_4  and  C_8
REMARK    6  A    between atoms: C_5  and  C_9
REMARK    7  A    between atoms: C_10  and  C_11
REMARK    8  A    between atoms: C_10  and  C_12
REMARK    9  A    between atoms: C_13  and  C_14
REMARK                            x       y       z     vdW  Elec       q    Type
REMARK                         _______ _______ _______ _____ _____    ______ ____
ROOT
ATOM      1  C   UNL     1      -8.827   4.769  -5.198  0.00  0.00    +0.000 C 
ATOM      2  C   UNL     1     -10.262   4.830  -5.593  0.00  0.00    +0.000 C 
ATOM      3  C   UNL     1      -9.212   4.754  -6.648  0.00  0.00    +0.000 C 
ATOM      4  H   UNL     1     -10.787   5.772  -5.468  0.00  0.00    +0.000 HD
ATOM      5  H   UNL     1      -9.096   3.813  -7.181  0.00  0.00    +0.000 HD
ENDROOT
BRANCH   1   6
ATOM      6  C   UNL     1      -8.235   6.010  -4.617  0.00  0.00    +0.000 C 
ATOM      7  H   UNL     1      -8.059   5.939  -3.538  0.00  0.00    +0.000 HD
ATOM      8  H   UNL     1      -7.269   6.226  -5.084  0.00  0.00    +0.000 HD
ATOM      9  H   UNL     1      -8.893   6.868  -4.792  0.00  0.00    +0.000 HD
ENDBRANCH   1   6
BRANCH   1  10
ATOM     10  C   UNL     1      -8.253   3.514  -4.629  0.00  0.00    +0.000 C 
ATOM     11  H   UNL     1      -7.921   2.844  -5.428  0.00  0.00    +0.000 HD
ATOM     12  H   UNL     1      -7.401   3.692  -3.963  0.00  0.00    +0.000 HD
ATOM     13  H   UNL     1      -9.010   2.983  -4.039  0.00  0.00    +0.000 HD
ENDBRANCH   1  10
BRANCH   2  14
ATOM     14  C   UNL     1     -11.127   3.652  -5.393  0.00  0.00    +0.000 C 
ATOM     15  C   UNL     1     -12.452   3.635  -5.149  0.00  0.00    +0.000 C 
ATOM     16  H   UNL     1     -10.621   2.690  -5.465  0.00  0.00    +0.000 HD
BRANCH  15  17
ATOM     17  C   UNL     1     -13.192   2.338  -4.967  0.00  0.00    +0.000 C 
ATOM     18  H   UNL     1     -12.645   1.683  -4.281  0.00  0.00    +0.000 HD
ATOM     19  H   UNL     1     -14.187   2.525  -4.550  0.00  0.00    +0.000 HD
ATOM     20  H   UNL     1     -13.322   1.796  -5.909  0.00  0.00    +0.000 HD
ENDBRANCH  15  17
BRANCH  15  21
ATOM     21  C   UNL     1     -13.297   4.871  -5.037  0.00  0.00    +0.000 C 
ATOM     22  H   UNL     1     -12.818   5.597  -4.371  0.00  0.00    +0.000 HD
ATOM     23  H   UNL     1     -13.422   5.333  -6.021  0.00  0.00    +0.000 HD
ATOM     24  H   UNL     1     -14.296   4.670  -4.638  0.00  0.00    +0.000 HD
ENDBRANCH  15  21
ENDBRANCH   2  14
BRANCH   3  26
ATOM     25  O   UNL     1      -7.943   6.164  -8.094  0.00  0.00    +0.000 OA
ATOM     26  C   UNL     1      -8.985   5.940  -7.493  0.00  0.00    +0.000 C 
BRANCH  26  27
ATOM     27  O   UNL     1     -10.101   6.722  -7.493  0.00  0.00    +0.000 OA
BRANCH  27  28
ATOM     28  C   UNL     1      -9.865   8.133  -7.491  0.00  0.00    +0.000 C 
ATOM     29  H   UNL     1      -8.798   8.324  -7.648  0.00  0.00    +0.000 HD
ATOM     30  H   UNL     1     -10.441   8.600  -8.297  0.00  0.00    +0.000 HD
BRANCH  28  31
ATOM     31  C   UNL     1     -10.297   8.703  -6.157  0.00  0.00    +0.000 C 
ATOM     32  H   UNL     1     -10.942   8.001  -5.621  0.00  0.00    +0.000 HD
ATOM     33  H   UNL     1      -9.425   8.929  -5.534  0.00  0.00    +0.000 HD
ATOM     34  H   UNL     1     -10.839   9.645  -6.298  0.00  0.00    +0.000 HD
ENDBRANCH  28  31
ENDBRANCH  27  28
ENDBRANCH  26  27
ENDBRANCH   3  26
TORSDOF 9
ENDMDL
MODEL 10
REMARK VINA RESULT:    -4.048     24.387     25.434
REMARK INTER + INTRA:          -6.271
REMARK INTER:                  -5.586
REMARK INTRA:                  -0.685
REMARK UNBOUND:                -0.685
REMARK  Name = 7334
REMARK  9 active torsions:
REMARK  status: ('A' for Active; 'I' for Inactive)
REMARK    1  A    between atoms: O_1  and  C_9
REMARK    2  A    between atoms: O_1  and  C_13
REMARK    3  A    between atoms: C_3  and  C_6
REMARK    4  A    between atoms: C_3  and  C_7
REMARK    5  A    between atoms: C_4  and  C_8
REMARK    6  A    between atoms: C_5  and  C_9
REMARK    7  A    between atoms: C_10  and  C_11
REMARK    8  A    between atoms: C_10  and  C_12
REMARK    9  A    between atoms: C_13  and  C_14
REMARK                            x       y       z     vdW  Elec       q    Type
REMARK                         _______ _______ _______ _____ _____    ______ ____
ROOT
ATOM      1  C   UNL     1      13.309  -3.786  10.753  0.00  0.00    +0.000 C 
ATOM      2  C   UNL     1      12.453  -3.729   9.535  0.00  0.00    +0.000 C 
ATOM      3  C   UNL     1      12.375  -2.631  10.540  0.00  0.00    +0.000 C 
ATOM      4  H   UNL     1      11.613  -4.415   9.467  0.00  0.00    +0.000 HD
ATOM      5  H   UNL     1      12.822  -1.675  10.281  0.00  0.00    +0.000 HD
ENDROOT
BRANCH   1   6
ATOM      6  C   UNL     1      12.964  -4.821  11.771  0.00  0.00    +0.000 C 
ATOM      7  H   UNL     1      11.912  -4.791  12.076  0.00  0.00    +0.000 HD
ATOM      8  H   UNL     1      13.152  -5.824  11.374  0.00  0.00    +0.000 HD
ATOM      9  H   UNL     1      13.575  -4.695  12.671  0.00  0.00    +0.000 HD
ENDBRANCH   1   6
BRANCH   1  10
ATOM     10  C   UNL     1      14.773  -3.509  10.660  0.00  0.00    +0.000 C 
ATOM     11  H   UNL     1      14.952  -2.460  10.400  0.00  0.00    +0.000 HD
ATOM     12  H   UNL     1      15.312  -3.722  11.589  0.00  0.00    +0.000 HD
ATOM     13  H   UNL     1      15.229  -4.130   9.880  0.00  0.00    +0.000 HD
ENDBRANCH   1  10
BRANCH   2  14
ATOM     14  C   UNL     1      13.060  -3.425   8.226  0.00  0.00    +0.000 C 
ATOM     15  C   UNL     1      13.428  -4.296   7.266  0.00  0.00    +0.000 C 
ATOM     16  H   UNL     1      13.214  -2.366   8.024  0.00  0.00    +0.000 HD
BRANCH  15  17
ATOM     17  C   UNL     1      14.039  -3.819   5.977  0.00  0.00    +0.000 C 
ATOM     18  H   UNL     1      14.766  -4.552   5.610  0.00  0.00    +0.000 HD
ATOM     19  H   UNL     1      13.264  -3.688   5.215  0.00  0.00    +0.000 HD
ATOM     20  H   UNL     1      14.560  -2.863   6.091  0.00  0.00    +0.000 HD
ENDBRANCH  15  17
BRANCH  15  21
ATOM     21  C   UNL     1      13.268  -5.785   7.382  0.00  0.00    +0.000 C 
ATOM     22  H   UNL     1      13.617  -6.126   8.363  0.00  0.00    +0.000 HD
ATOM     23  H   UNL     1      12.215  -6.061   7.275  0.00  0.00    +0.000 HD
ATOM     24  H   UNL     1      13.832  -6.335   6.624  0.00  0.00    +0.000 HD
ENDBRANCH  15  21
ENDBRANCH   2  14
BRANCH   3  26
ATOM     25  O   UNL     1      11.107  -2.017  12.465  0.00  0.00    +0.000 OA
ATOM     26  C   UNL     1      11.146  -2.507  11.344  0.00  0.00    +0.000 C 
BRANCH  26  27
ATOM     27  O   UNL     1      10.091  -3.017  10.648  0.00  0.00    +0.000 OA
BRANCH  27  28
ATOM     28  C   UNL     1       9.096  -3.679  11.434  0.00  0.00    +0.000 C 
ATOM     29  H   UNL     1       9.476  -3.832  12.450  0.00  0.00    +0.000 HD
ATOM     30  H   UNL     1       8.192  -3.061  11.474  0.00  0.00    +0.000 HD
BRANCH  28  31
ATOM     31  C   UNL     1       8.775  -5.015  10.801  0.00  0.00    +0.000 C 
ATOM     32  H   UNL     1       8.291  -5.683  11.520  0.00  0.00    +0.000 HD
ATOM     33  H   UNL     1       8.113  -4.884   9.938  0.00  0.00    +0.000 HD
ATOM     34  H   UNL     1       9.687  -5.496  10.431  0.00  0.00    +0.000 HD
ENDBRANCH  28  31
ENDBRANCH  27  28
ENDBRANCH  26  27
ENDBRANCH   3  26
TORSDOF 9
ENDMDL
