MODEL 1
REMARK VINA RESULT:    -4.420      0.000      0.000
REMARK INTER + INTRA:          -7.385
REMARK INTER:                  -7.035
REMARK INTRA:                  -0.351
REMARK UNBOUND:                -0.639
REMARK  Name = 7799
REMARK  10 active torsions:
REMARK  status: ('A' for Active; 'I' for Inactive)
REMARK    1  A    between atoms: O_1  and  C_10
REMARK    2  A    between atoms: O_1  and  C_11
REMARK    3  A    between atoms: C_3  and  C_4
REMARK    4  A    between atoms: C_3  and  C_5
REMARK    5  A    between atoms: C_4  and  C_6
REMARK    6  A    between atoms: C_5  and  C_7
REMARK    7  A    between atoms: C_6  and  C_8
REMARK    8  A    between atoms: C_7  and  C_9
REMARK    9  A    between atoms: C_8  and  C_10
REMARK   10  A    between atoms: C_11  and  C_12
REMARK                            x       y       z     vdW  Elec       q    Type
REMARK                         _______ _______ _______ _____ _____    ______ ____
ROOT
ATOM      1  C   UNL     1      -8.386  11.001   6.892  0.00  0.00    +0.000 C 
ATOM      2  H   UNL     1      -7.323  10.860   7.124  0.00  0.00    +0.000 HD
ATOM      3  H   UNL     1      -8.704  11.932   7.378  0.00  0.00    +0.000 HD
ENDROOT
BRANCH   1   4
ATOM      4  C   UNL     1      -8.572  11.121   5.379  0.00  0.00    +0.000 C 
ATOM      5  H   UNL     1      -8.816  10.137   4.959  0.00  0.00    +0.000 HD
ATOM      6  H   UNL     1      -9.420  11.783   5.166  0.00  0.00    +0.000 HD
BRANCH   4   7
ATOM      7  C   UNL     1      -7.313  11.669   4.705  0.00  0.00    +0.000 C 
ATOM      8  H   UNL     1      -7.273  11.327   3.664  0.00  0.00    +0.000 HD
ATOM      9  H   UNL     1      -6.425  11.271   5.211  0.00  0.00    +0.000 HD
BRANCH   7  10
ATOM     10  C   UNL     1      -7.282  13.197   4.746  0.00  0.00    +0.000 C 
ATOM     11  H   UNL     1      -8.144  13.572   5.309  0.00  0.00    +0.000 HD
ATOM     12  H   UNL     1      -7.358  13.598   3.729  0.00  0.00    +0.000 HD
BRANCH  10  13
ATOM     13  C   UNL     1      -6.005  13.710   5.393  0.00  0.00    +0.000 C 
ATOM     14  H   UNL     1      -5.215  13.847   4.647  0.00  0.00    +0.000 HD
ATOM     15  H   UNL     1      -5.642  13.013   6.153  0.00  0.00    +0.000 HD
ATOM     16  H   UNL     1      -6.187  14.676   5.876  0.00  0.00    +0.000 HD
ENDBRANCH  10  13
ENDBRANCH   7  10
ENDBRANCH   4   7
ENDBRANCH   1   4
BRANCH   1  17
ATOM     17  C   UNL     1      -9.194   9.830   7.461  0.00  0.00    +0.000 C 
ATOM     18  H   UNL     1      -9.913  10.203   8.201  0.00  0.00    +0.000 HD
ATOM     19  H   UNL     1      -9.784   9.372   6.656  0.00  0.00    +0.000 HD
BRANCH  17  20
ATOM     20  C   UNL     1      -8.308   8.769   8.110  0.00  0.00    +0.000 C 
ATOM     21  H   UNL     1      -8.804   7.793   8.050  0.00  0.00    +0.000 HD
ATOM     22  H   UNL     1      -7.352   8.713   7.575  0.00  0.00    +0.000 HD
BRANCH  20  24
ATOM     23  O   UNL     1      -6.896   9.203  10.044  0.00  0.00    +0.000 OA
ATOM     24  C   UNL     1      -8.013   9.048   9.568  0.00  0.00    +0.000 C 
BRANCH  24  25
ATOM     25  O   UNL     1      -9.192   9.129  10.252  0.00  0.00    +0.000 OA
BRANCH  25  26
ATOM     26  C   UNL     1      -9.391   8.132  11.259  0.00  0.00    +0.000 C 
ATOM     27  H   UNL     1      -8.959   7.184  10.923  0.00  0.00    +0.000 HD
ATOM     28  H   UNL     1      -8.900   8.448  12.187  0.00  0.00    +0.000 HD
BRANCH  26  29
ATOM     29  C   UNL     1     -10.876   7.962  11.498  0.00  0.00    +0.000 C 
ATOM     30  H   UNL     1     -11.455   8.636  10.862  0.00  0.00    +0.000 HD
ATOM     31  H   UNL     1     -11.183   6.930  11.295  0.00  0.00    +0.000 HD
ATOM     32  H   UNL     1     -11.123   8.165  12.546  0.00  0.00    +0.000 HD
ENDBRANCH  26  29
ENDBRANCH  25  26
ENDBRANCH  24  25
ENDBRANCH  20  24
ENDBRANCH  17  20
ENDBRANCH   1  17
TORSDOF 10
ENDMDL
MODEL 2
REMARK VINA RESULT:    -4.233     18.373     20.930
REMARK INTER + INTRA:          -7.099
REMARK INTER:                  -6.634
REMARK INTRA:                  -0.465
REMARK UNBOUND:                -0.639
REMARK  Name = 7799
REMARK  10 active torsions:
REMARK  status: ('A' for Active; 'I' for Inactive)
REMARK    1  A    between atoms: O_1  and  C_10
REMARK    2  A    between atoms: O_1  and  C_11
REMARK    3  A    between atoms: C_3  and  C_4
REMARK    4  A    between atoms: C_3  and  C_5
REMARK    5  A    between atoms: C_4  and  C_6
REMARK    6  A    between atoms: C_5  and  C_7
REMARK    7  A    between atoms: C_6  and  C_8
REMARK    8  A    between atoms: C_7  and  C_9
REMARK    9  A    between atoms: C_8  and  C_10
REMARK   10  A    between atoms: C_11  and  C_12
REMARK                            x       y       z     vdW  Elec       q    Type
REMARK                         _______ _______ _______ _____ _____    ______ ____
ROOT
ATOM      1  C   UNL     1      -2.233   9.309  -9.243  0.00  0.00    +0.000 C 
ATOM      2  H   UNL     1      -1.868  10.092  -8.567  0.00  0.00    +0.000 HD
ATOM      3  H   UNL     1      -1.356   8.759  -9.606  0.00  0.00    +0.000 HD
ENDROOT
BRANCH   1   4
ATOM      4  C   UNL     1      -3.158   8.358  -8.481  0.00  0.00    +0.000 C 
ATOM      5  H   UNL     1      -2.832   8.287  -7.436  0.00  0.00    +0.000 HD
ATOM      6  H   UNL     1      -4.176   8.765  -8.475  0.00  0.00    +0.000 HD
BRANCH   4   7
ATOM      7  C   UNL     1      -3.166   6.965  -9.114  0.00  0.00    +0.000 C 
ATOM      8  H   UNL     1      -2.941   6.212  -8.350  0.00  0.00    +0.000 HD
ATOM      9  H   UNL     1      -2.377   6.904  -9.873  0.00  0.00    +0.000 HD
BRANCH   7  10
ATOM     10  C   UNL     1      -4.518   6.656  -9.758  0.00  0.00    +0.000 C 
ATOM     11  H   UNL     1      -4.378   5.992 -10.618  0.00  0.00    +0.000 HD
ATOM     12  H   UNL     1      -4.972   7.581 -10.131  0.00  0.00    +0.000 HD
BRANCH  10  13
ATOM     13  C   UNL     1      -5.466   5.995  -8.770  0.00  0.00    +0.000 C 
ATOM     14  H   UNL     1      -6.030   5.187  -9.250  0.00  0.00    +0.000 HD
ATOM     15  H   UNL     1      -6.180   6.719  -8.366  0.00  0.00    +0.000 HD
ATOM     16  H   UNL     1      -4.904   5.567  -7.935  0.00  0.00    +0.000 HD
ENDBRANCH  10  13
ENDBRANCH   7  10
ENDBRANCH   4   7
ENDBRANCH   1   4
BRANCH   1  17
ATOM     17  C   UNL     1      -2.955   9.954 -10.431  0.00  0.00    +0.000 C 
ATOM     18  H   UNL     1      -4.038   9.802 -10.331  0.00  0.00    +0.000 HD
ATOM     19  H   UNL     1      -2.790  11.039 -10.411  0.00  0.00    +0.000 HD
BRANCH  17  20
ATOM     20  C   UNL     1      -2.489   9.392 -11.773  0.00  0.00    +0.000 C 
ATOM     21  H   UNL     1      -2.532   8.297 -11.744  0.00  0.00    +0.000 HD
ATOM     22  H   UNL     1      -3.152   9.751 -12.570  0.00  0.00    +0.000 HD
BRANCH  20  24
ATOM     23  O   UNL     1      -0.588  10.899 -11.951  0.00  0.00    +0.000 OA
ATOM     24  C   UNL     1      -1.073   9.790 -12.127  0.00  0.00    +0.000 C 
BRANCH  24  25
ATOM     25  O   UNL     1      -0.421   8.705 -12.641  0.00  0.00    +0.000 OA
BRANCH  25  26
ATOM     26  C   UNL     1      -0.632   8.463 -14.035  0.00  0.00    +0.000 C 
ATOM     27  H   UNL     1      -0.594   7.386 -14.228  0.00  0.00    +0.000 HD
ATOM     28  H   UNL     1      -1.613   8.851 -14.329  0.00  0.00    +0.000 HD
BRANCH  26  29
ATOM     29  C   UNL     1       0.453   9.163 -14.826  0.00  0.00    +0.000 C 
ATOM     30  H   UNL     1       0.509  10.222 -14.562  0.00  0.00    +0.000 HD
ATOM     31  H   UNL     1       1.427   8.698 -14.639  0.00  0.00    +0.000 HD
ATOM     32  H   UNL     1       0.261   9.076 -15.901  0.00  0.00    +0.000 HD
ENDBRANCH  26  29
ENDBRANCH  25  26
ENDBRANCH  24  25
ENDBRANCH  20  24
ENDBRANCH  17  20
ENDBRANCH   1  17
TORSDOF 10
ENDMDL
MODEL 3
REMARK VINA RESULT:    -4.214     14.735     16.772
REMARK INTER + INTRA:          -7.071
REMARK INTER:                  -6.639
REMARK INTRA:                  -0.432
REMARK UNBOUND:                -0.639
REMARK  Name = 7799
REMARK  10 active torsions:
REMARK  status: ('A' for Active; 'I' for Inactive)
REMARK    1  A    between atoms: O_1  and  C_10
REMARK    2  A    between atoms: O_1  and  C_11
REMARK    3  A    between atoms: C_3  and  C_4
REMARK    4  A    between atoms: C_3  and  C_5
REMARK    5  A    between atoms: C_4  and  C_6
REMARK    6  A    between atoms: C_5  and  C_7
REMARK    7  A    between atoms: C_6  and  C_8
REMARK    8  A    between atoms: C_7  and  C_9
REMARK    9  A    between atoms: C_8  and  C_10
REMARK   10  A    between atoms: C_11  and  C_12
REMARK                            x       y       z     vdW  Elec       q    Type
REMARK                         _______ _______ _______ _____ _____    ______ ____
ROOT
ATOM      1  C   UNL     1       7.686   9.220   1.564  0.00  0.00    +0.000 C 
ATOM      2  H   UNL     1       7.379  10.257   1.388  0.00  0.00    +0.000 HD
ATOM      3  H   UNL     1       8.677   9.093   1.110  0.00  0.00    +0.000 HD
ENDROOT
BRANCH   1   4
ATOM      4  C   UNL     1       7.772   8.955   3.068  0.00  0.00    +0.000 C 
ATOM      5  H   UNL     1       8.771   8.577   3.319  0.00  0.00    +0.000 HD
ATOM      6  H   UNL     1       7.635   9.896   3.614  0.00  0.00    +0.000 HD
BRANCH   4   7
ATOM      7  C   UNL     1       6.713   7.945   3.516  0.00  0.00    +0.000 C 
ATOM      8  H   UNL     1       6.909   6.973   3.046  0.00  0.00    +0.000 HD
ATOM      9  H   UNL     1       5.725   8.276   3.176  0.00  0.00    +0.000 HD
BRANCH   7  10
ATOM     10  C   UNL     1       6.704   7.788   5.037  0.00  0.00    +0.000 C 
ATOM     11  H   UNL     1       6.940   6.752   5.306  0.00  0.00    +0.000 HD
ATOM     12  H   UNL     1       5.704   8.006   5.427  0.00  0.00    +0.000 HD
BRANCH  10  13
ATOM     13  C   UNL     1       7.713   8.714   5.697  0.00  0.00    +0.000 C 
ATOM     14  H   UNL     1       8.451   9.072   4.971  0.00  0.00    +0.000 HD
ATOM     15  H   UNL     1       8.245   8.203   6.505  0.00  0.00    +0.000 HD
ATOM     16  H   UNL     1       7.205   9.586   6.122  0.00  0.00    +0.000 HD
ENDBRANCH  10  13
ENDBRANCH   7  10
ENDBRANCH   4   7
ENDBRANCH   1   4
BRANCH   1  17
ATOM     17  C   UNL     1       6.693   8.269   0.888  0.00  0.00    +0.000 C 
ATOM     18  H   UNL     1       7.228   7.613   0.188  0.00  0.00    +0.000 HD
ATOM     19  H   UNL     1       6.244   7.614   1.646  0.00  0.00    +0.000 HD
BRANCH  17  20
ATOM     20  C   UNL     1       5.589   9.013   0.138  0.00  0.00    +0.000 C 
ATOM     21  H   UNL     1       5.159   8.353  -0.624  0.00  0.00    +0.000 HD
ATOM     22  H   UNL     1       4.800   9.301   0.843  0.00  0.00    +0.000 HD
BRANCH  20  24
ATOM     23  O   UNL     1       6.859  10.289  -1.498  0.00  0.00    +0.000 OA
ATOM     24  C   UNL     1       6.078  10.265  -0.556  0.00  0.00    +0.000 C 
BRANCH  24  25
ATOM     25  O   UNL     1       5.483  11.352   0.018  0.00  0.00    +0.000 OA
BRANCH  25  26
ATOM     26  C   UNL     1       4.228  11.102   0.658  0.00  0.00    +0.000 C 
ATOM     27  H   UNL     1       4.017  10.027   0.637  0.00  0.00    +0.000 HD
ATOM     28  H   UNL     1       4.273  11.444   1.697  0.00  0.00    +0.000 HD
BRANCH  26  29
ATOM     29  C   UNL     1       3.139  11.851  -0.081  0.00  0.00    +0.000 C 
ATOM     30  H   UNL     1       2.630  11.199  -0.795  0.00  0.00    +0.000 HD
ATOM     31  H   UNL     1       2.402  12.251   0.623  0.00  0.00    +0.000 HD
ATOM     32  H   UNL     1       3.560  12.707  -0.621  0.00  0.00    +0.000 HD
ENDBRANCH  26  29
ENDBRANCH  25  26
ENDBRANCH  24  25
ENDBRANCH  20  24
ENDBRANCH  17  20
ENDBRANCH   1  17
TORSDOF 10
ENDMDL
MODEL 4
REMARK VINA RESULT:    -4.202     14.869     16.708
REMARK INTER + INTRA:          -7.052
REMARK INTER:                  -6.701
REMARK INTRA:                  -0.350
REMARK UNBOUND:                -0.639
REMARK  Name = 7799
REMARK  10 active torsions:
REMARK  status: ('A' for Active; 'I' for Inactive)
REMARK    1  A    between atoms: O_1  and  C_10
REMARK    2  A    between atoms: O_1  and  C_11
REMARK    3  A    between atoms: C_3  and  C_4
REMARK    4  A    between atoms: C_3  and  C_5
REMARK    5  A    between atoms: C_4  and  C_6
REMARK    6  A    between atoms: C_5  and  C_7
REMARK    7  A    between atoms: C_6  and  C_8
REMARK    8  A    between atoms: C_7  and  C_9
REMARK    9  A    between atoms: C_8  and  C_10
REMARK   10  A    between atoms: C_11  and  C_12
REMARK                            x       y       z     vdW  Elec       q    Type
REMARK                         _______ _______ _______ _____ _____    ______ ____
ROOT
ATOM      1  C   UNL     1      -5.196   6.264  -9.473  0.00  0.00    +0.000 C 
ATOM      2  H   UNL     1      -5.608   7.181  -9.913  0.00  0.00    +0.000 HD
ATOM      3  H   UNL     1      -5.069   5.541 -10.289  0.00  0.00    +0.000 HD
ENDROOT
BRANCH   1   4
ATOM      4  C   UNL     1      -3.837   6.563  -8.836  0.00  0.00    +0.000 C 
ATOM      5  H   UNL     1      -3.986   7.047  -7.862  0.00  0.00    +0.000 HD
ATOM      6  H   UNL     1      -3.305   5.623  -8.652  0.00  0.00    +0.000 HD
BRANCH   4   7
ATOM      7  C   UNL     1      -2.988   7.465  -9.734  0.00  0.00    +0.000 C 
ATOM      8  H   UNL     1      -3.514   7.645 -10.679  0.00  0.00    +0.000 HD
ATOM      9  H   UNL     1      -2.048   6.957  -9.977  0.00  0.00    +0.000 HD
BRANCH   7  10
ATOM     10  C   UNL     1      -2.686   8.800  -9.052  0.00  0.00    +0.000 C 
ATOM     11  H   UNL     1      -2.178   8.624  -8.097  0.00  0.00    +0.000 HD
ATOM     12  H   UNL     1      -3.622   9.325  -8.831  0.00  0.00    +0.000 HD
BRANCH  10  13
ATOM     13  C   UNL     1      -1.809   9.684  -9.924  0.00  0.00    +0.000 C 
ATOM     14  H   UNL     1      -1.563   9.183 -10.867  0.00  0.00    +0.000 HD
ATOM     15  H   UNL     1      -0.874   9.935  -9.415  0.00  0.00    +0.000 HD
ATOM     16  H   UNL     1      -2.328  10.617 -10.162  0.00  0.00    +0.000 HD
ENDBRANCH  10  13
ENDBRANCH   7  10
ENDBRANCH   4   7
ENDBRANCH   1   4
BRANCH   1  17
ATOM     17  C   UNL     1      -6.181   5.701  -8.444  0.00  0.00    +0.000 C 
ATOM     18  H   UNL     1      -6.024   4.619  -8.337  0.00  0.00    +0.000 HD
ATOM     19  H   UNL     1      -5.972   6.144  -7.462  0.00  0.00    +0.000 HD
BRANCH  17  20
ATOM     20  C   UNL     1      -7.637   5.964  -8.824  0.00  0.00    +0.000 C 
ATOM     21  H   UNL     1      -7.679   6.770  -9.565  0.00  0.00    +0.000 HD
ATOM     22  H   UNL     1      -8.070   5.057  -9.261  0.00  0.00    +0.000 HD
BRANCH  20  24
ATOM     23  O   UNL     1      -9.714   6.477  -7.666  0.00  0.00    +0.000 OA
ATOM     24  C   UNL     1      -8.495   6.374  -7.647  0.00  0.00    +0.000 C 
BRANCH  24  25
ATOM     25  O   UNL     1      -7.692   6.575  -6.560  0.00  0.00    +0.000 OA
BRANCH  25  26
ATOM     26  C   UNL     1      -8.330   6.429  -5.287  0.00  0.00    +0.000 C 
ATOM     27  H   UNL     1      -7.805   7.040  -4.545  0.00  0.00    +0.000 HD
ATOM     28  H   UNL     1      -9.372   6.760  -5.360  0.00  0.00    +0.000 HD
BRANCH  26  29
ATOM     29  C   UNL     1      -8.284   4.973  -4.877  0.00  0.00    +0.000 C 
ATOM     30  H   UNL     1      -8.972   4.777  -4.051  0.00  0.00    +0.000 HD
ATOM     31  H   UNL     1      -8.549   4.326  -5.720  0.00  0.00    +0.000 HD
ATOM     32  H   UNL     1      -7.271   4.692  -4.568  0.00  0.00    +0.000 HD
ENDBRANCH  26  29
ENDBRANCH  25  26
ENDBRANCH  24  25
ENDBRANCH  20  24
ENDBRANCH  17  20
ENDBRANCH   1  17
TORSDOF 10
ENDMDL
MODEL 5
REMARK VINA RESULT:    -4.123     16.904     19.119
REMARK INTER + INTRA:          -6.931
REMARK INTER:                  -6.632
REMARK INTRA:                  -0.299
REMARK UNBOUND:                -0.639
REMARK  Name = 7799
REMARK  10 active torsions:
REMARK  status: ('A' for Active; 'I' for Inactive)
REMARK    1  A    between atoms: O_1  and  C_10
REMARK    2  A    between atoms: O_1  and  C_11
REMARK    3  A    between atoms: C_3  and  C_4
REMARK    4  A    between atoms: C_3  and  C_5
REMARK    5  A    between atoms: C_4  and  C_6
REMARK    6  A    between atoms: C_5  and  C_7
REMARK    7  A    between atoms: C_6  and  C_8
REMARK    8  A    between atoms: C_7  and  C_9
REMARK    9  A    between atoms: C_8  and  C_10
REMARK   10  A    between atoms: C_11  and  C_12
REMARK                            x       y       z     vdW  Elec       q    Type
REMARK                         _______ _______ _______ _____ _____    ______ ____
ROOT
ATOM      1  C   UNL     1      -5.532   6.320 -10.155  0.00  0.00    +0.000 C 
ATOM      2  H   UNL     1      -5.868   5.449 -10.732  0.00  0.00    +0.000 HD
ATOM      3  H   UNL     1      -6.222   7.143 -10.379  0.00  0.00    +0.000 HD
ENDROOT
BRANCH   1   4
ATOM      4  C   UNL     1      -5.582   5.999  -8.661  0.00  0.00    +0.000 C 
ATOM      5  H   UNL     1      -4.906   5.164  -8.440  0.00  0.00    +0.000 HD
ATOM      6  H   UNL     1      -5.225   6.864  -8.089  0.00  0.00    +0.000 HD
BRANCH   4   7
ATOM      7  C   UNL     1      -7.002   5.643  -8.215  0.00  0.00    +0.000 C 
ATOM      8  H   UNL     1      -7.728   6.102  -8.896  0.00  0.00    +0.000 HD
ATOM      9  H   UNL     1      -7.187   6.057  -7.217  0.00  0.00    +0.000 HD
BRANCH   7  10
ATOM     10  C   UNL     1      -7.210   4.128  -8.187  0.00  0.00    +0.000 C 
ATOM     11  H   UNL     1      -6.255   3.624  -8.004  0.00  0.00    +0.000 HD
ATOM     12  H   UNL     1      -7.579   3.785  -9.159  0.00  0.00    +0.000 HD
BRANCH  10  13
ATOM     13  C   UNL     1      -8.199   3.724  -7.105  0.00  0.00    +0.000 C 
ATOM     14  H   UNL     1      -7.982   2.716  -6.733  0.00  0.00    +0.000 HD
ATOM     15  H   UNL     1      -9.225   3.736  -7.485  0.00  0.00    +0.000 HD
ATOM     16  H   UNL     1      -8.141   4.417  -6.260  0.00  0.00    +0.000 HD
ENDBRANCH  10  13
ENDBRANCH   7  10
ENDBRANCH   4   7
ENDBRANCH   1   4
BRANCH   1  17
ATOM     17  C   UNL     1      -4.117   6.711 -10.593  0.00  0.00    +0.000 C 
ATOM     18  H   UNL     1      -3.681   5.903 -11.196  0.00  0.00    +0.000 HD
ATOM     19  H   UNL     1      -4.170   7.592 -11.246  0.00  0.00    +0.000 HD
BRANCH  17  20
ATOM     20  C   UNL     1      -3.200   7.008  -9.408  0.00  0.00    +0.000 C 
ATOM     21  H   UNL     1      -3.735   6.802  -8.474  0.00  0.00    +0.000 HD
ATOM     22  H   UNL     1      -2.315   6.362  -9.460  0.00  0.00    +0.000 HD
BRANCH  20  24
ATOM     23  O   UNL     1      -2.936   9.227  -8.447  0.00  0.00    +0.000 OA
ATOM     24  C   UNL     1      -2.728   8.445  -9.364  0.00  0.00    +0.000 C 
BRANCH  24  25
ATOM     25  O   UNL     1      -2.010   8.712 -10.495  0.00  0.00    +0.000 OA
BRANCH  25  26
ATOM     26  C   UNL     1      -1.304   9.956 -10.498  0.00  0.00    +0.000 C 
ATOM     27  H   UNL     1      -1.975  10.757 -10.169  0.00  0.00    +0.000 HD
ATOM     28  H   UNL     1      -0.450   9.893  -9.814  0.00  0.00    +0.000 HD
BRANCH  26  29
ATOM     29  C   UNL     1      -0.814  10.243 -11.901  0.00  0.00    +0.000 C 
ATOM     30  H   UNL     1      -0.796  11.318 -12.098  0.00  0.00    +0.000 HD
ATOM     31  H   UNL     1       0.194   9.839 -12.047  0.00  0.00    +0.000 HD
ATOM     32  H   UNL     1      -1.461   9.758 -12.641  0.00  0.00    +0.000 HD
ENDBRANCH  26  29
ENDBRANCH  25  26
ENDBRANCH  24  25
ENDBRANCH  20  24
ENDBRANCH  17  20
ENDBRANCH   1  17
TORSDOF 10
ENDMDL
MODEL 6
REMARK VINA RESULT:    -4.121     17.493     19.204
REMARK INTER + INTRA:          -6.928
REMARK INTER:                  -6.539
REMARK INTRA:                  -0.389
REMARK UNBOUND:                -0.639
REMARK  Name = 7799
REMARK  10 active torsions:
REMARK  status: ('A' for Active; 'I' for Inactive)
REMARK    1  A    between atoms: O_1  and  C_10
REMARK    2  A    between atoms: O_1  and  C_11
REMARK    3  A    between atoms: C_3  and  C_4
REMARK    4  A    between atoms: C_3  and  C_5
REMARK    5  A    between atoms: C_4  and  C_6
REMARK    6  A    between atoms: C_5  and  C_7
REMARK    7  A    between atoms: C_6  and  C_8
REMARK    8  A    between atoms: C_7  and  C_9
REMARK    9  A    between atoms: C_8  and  C_10
REMARK   10  A    between atoms: C_11  and  C_12
REMARK                            x       y       z     vdW  Elec       q    Type
REMARK                         _______ _______ _______ _____ _____    ______ ____
ROOT
ATOM      1  C   UNL     1     -20.779  -2.894   6.462  0.00  0.00    +0.000 C 
ATOM      2  H   UNL     1     -20.212  -3.715   6.918  0.00  0.00    +0.000 HD
ATOM      3  H   UNL     1     -21.818  -2.988   6.803  0.00  0.00    +0.000 HD
ENDROOT
BRANCH   1   4
ATOM      4  C   UNL     1     -20.206  -1.553   6.923  0.00  0.00    +0.000 C 
ATOM      5  H   UNL     1     -19.399  -1.726   7.646  0.00  0.00    +0.000 HD
ATOM      6  H   UNL     1     -19.767  -1.028   6.067  0.00  0.00    +0.000 HD
BRANCH   4   7
ATOM      7  C   UNL     1     -21.287  -0.677   7.561  0.00  0.00    +0.000 C 
ATOM      8  H   UNL     1     -21.778  -0.075   6.786  0.00  0.00    +0.000 HD
ATOM      9  H   UNL     1     -20.822   0.021   8.267  0.00  0.00    +0.000 HD
BRANCH   7  10
ATOM     10  C   UNL     1     -22.329  -1.524   8.291  0.00  0.00    +0.000 C 
ATOM     11  H   UNL     1     -21.840  -2.371   8.785  0.00  0.00    +0.000 HD
ATOM     12  H   UNL     1     -23.045  -1.935   7.572  0.00  0.00    +0.000 HD
BRANCH  10  13
ATOM     13  C   UNL     1     -23.077  -0.708   9.334  0.00  0.00    +0.000 C 
ATOM     14  H   UNL     1     -24.152  -0.698   9.125  0.00  0.00    +0.000 HD
ATOM     15  H   UNL     1     -22.721   0.326   9.353  0.00  0.00    +0.000 HD
ATOM     16  H   UNL     1     -22.928  -1.137  10.329  0.00  0.00    +0.000 HD
ENDBRANCH  10  13
ENDBRANCH   7  10
ENDBRANCH   4   7
ENDBRANCH   1   4
BRANCH   1  17
ATOM     17  C   UNL     1     -20.732  -3.023   4.936  0.00  0.00    +0.000 C 
ATOM     18  H   UNL     1     -21.625  -2.558   4.499  0.00  0.00    +0.000 HD
ATOM     19  H   UNL     1     -19.869  -2.463   4.551  0.00  0.00    +0.000 HD
BRANCH  17  20
ATOM     20  C   UNL     1     -20.644  -4.477   4.475  0.00  0.00    +0.000 C 
ATOM     21  H   UNL     1     -21.145  -5.121   5.206  0.00  0.00    +0.000 HD
ATOM     22  H   UNL     1     -21.145  -4.584   3.506  0.00  0.00    +0.000 HD
BRANCH  20  24
ATOM     23  O   UNL     1     -18.583  -5.556   5.186  0.00  0.00    +0.000 OA
ATOM     24  C   UNL     1     -19.221  -4.969   4.323  0.00  0.00    +0.000 C 
BRANCH  24  25
ATOM     25  O   UNL     1     -18.783  -4.681   3.062  0.00  0.00    +0.000 OA
BRANCH  25  26
ATOM     26  C   UNL     1     -19.622  -5.143   1.998  0.00  0.00    +0.000 C 
ATOM     27  H   UNL     1     -20.667  -4.913   2.232  0.00  0.00    +0.000 HD
ATOM     28  H   UNL     1     -19.339  -4.642   1.066  0.00  0.00    +0.000 HD
BRANCH  26  29
ATOM     29  C   UNL     1     -19.449  -6.639   1.847  0.00  0.00    +0.000 C 
ATOM     30  H   UNL     1     -18.678  -6.871   1.108  0.00  0.00    +0.000 HD
ATOM     31  H   UNL     1     -19.170  -7.093   2.804  0.00  0.00    +0.000 HD
ATOM     32  H   UNL     1     -20.390  -7.106   1.537  0.00  0.00    +0.000 HD
ENDBRANCH  26  29
ENDBRANCH  25  26
ENDBRANCH  24  25
ENDBRANCH  20  24
ENDBRANCH  17  20
ENDBRANCH   1  17
TORSDOF 10
ENDMDL
MODEL 7
REMARK VINA RESULT:    -4.091      1.339      2.143
REMARK INTER + INTRA:          -6.883
REMARK INTER:                  -6.429
REMARK INTRA:                  -0.454
REMARK UNBOUND:                -0.639
REMARK  Name = 7799
REMARK  10 active torsions:
REMARK  status: ('A' for Active; 'I' for Inactive)
REMARK    1  A    between atoms: O_1  and  C_10
REMARK    2  A    between atoms: O_1  and  C_11
REMARK    3  A    between atoms: C_3  and  C_4
REMARK    4  A    between atoms: C_3  and  C_5
REMARK    5  A    between atoms: C_4  and  C_6
REMARK    6  A    between atoms: C_5  and  C_7
REMARK    7  A    between atoms: C_6  and  C_8
REMARK    8  A    between atoms: C_7  and  C_9
REMARK    9  A    between atoms: C_8  and  C_10
REMARK   10  A    between atoms: C_11  and  C_12
REMARK                            x       y       z     vdW  Elec       q    Type
REMARK                         _______ _______ _______ _____ _____    ______ ____
ROOT
ATOM      1  C   UNL     1      -8.605  11.063   5.442  0.00  0.00    +0.000 C 
ATOM      2  H   UNL     1      -9.458  11.726   5.251  0.00  0.00    +0.000 HD
ATOM      3  H   UNL     1      -8.869  10.073   5.048  0.00  0.00    +0.000 HD
ENDROOT
BRANCH   1   4
ATOM      4  C   UNL     1      -7.367  11.592   4.716  0.00  0.00    +0.000 C 
ATOM      5  H   UNL     1      -6.463  11.195   5.193  0.00  0.00    +0.000 HD
ATOM      6  H   UNL     1      -7.370  11.235   3.679  0.00  0.00    +0.000 HD
BRANCH   4   7
ATOM      7  C   UNL     1      -7.327  13.122   4.729  0.00  0.00    +0.000 C 
ATOM      8  H   UNL     1      -8.209  13.510   5.252  0.00  0.00    +0.000 HD
ATOM      9  H   UNL     1      -7.369  13.497   3.700  0.00  0.00    +0.000 HD
BRANCH   7  10
ATOM     10  C   UNL     1      -6.058  13.637   5.408  0.00  0.00    +0.000 C 
ATOM     11  H   UNL     1      -5.659  14.494   4.853  0.00  0.00    +0.000 HD
ATOM     12  H   UNL     1      -5.288  12.857   5.400  0.00  0.00    +0.000 HD
BRANCH  10  13
ATOM     13  C   UNL     1      -6.328  14.060   6.844  0.00  0.00    +0.000 C 
ATOM     14  H   UNL     1      -6.045  15.106   7.003  0.00  0.00    +0.000 HD
ATOM     15  H   UNL     1      -5.765  13.440   7.548  0.00  0.00    +0.000 HD
ATOM     16  H   UNL     1      -7.392  13.957   7.075  0.00  0.00    +0.000 HD
ENDBRANCH  10  13
ENDBRANCH   7  10
ENDBRANCH   4   7
ENDBRANCH   1   4
BRANCH   1  17
ATOM     17  C   UNL     1      -8.363  10.960   6.951  0.00  0.00    +0.000 C 
ATOM     18  H   UNL     1      -7.284  10.930   7.150  0.00  0.00    +0.000 HD
ATOM     19  H   UNL     1      -8.745  11.865   7.442  0.00  0.00    +0.000 HD
BRANCH  17  20
ATOM     20  C   UNL     1      -9.024   9.728   7.567  0.00  0.00    +0.000 C 
ATOM     21  H   UNL     1      -9.225   8.992   6.780  0.00  0.00    +0.000 HD
ATOM     22  H   UNL     1      -8.348   9.282   8.306  0.00  0.00    +0.000 HD
BRANCH  20  24
ATOM     23  O   UNL     1     -11.161  10.851   7.868  0.00  0.00    +0.000 OA
ATOM     24  C   UNL     1     -10.335  10.036   8.257  0.00  0.00    +0.000 C 
BRANCH  24  25
ATOM     25  O   UNL     1     -10.456   9.237   9.358  0.00  0.00    +0.000 OA
BRANCH  25  26
ATOM     26  C   UNL     1      -9.320   9.210  10.227  0.00  0.00    +0.000 C 
ATOM     27  H   UNL     1      -8.415   9.025   9.639  0.00  0.00    +0.000 HD
ATOM     28  H   UNL     1      -9.230  10.173  10.741  0.00  0.00    +0.000 HD
BRANCH  26  29
ATOM     29  C   UNL     1      -9.503   8.103  11.244  0.00  0.00    +0.000 C 
ATOM     30  H   UNL     1      -8.858   7.251  11.016  0.00  0.00    +0.000 HD
ATOM     31  H   UNL     1      -9.272   8.464  12.252  0.00  0.00    +0.000 HD
ATOM     32  H   UNL     1     -10.545   7.764  11.260  0.00  0.00    +0.000 HD
ENDBRANCH  26  29
ENDBRANCH  25  26
ENDBRANCH  24  25
ENDBRANCH  20  24
ENDBRANCH  17  20
ENDBRANCH   1  17
TORSDOF 10
ENDMDL
MODEL 8
REMARK VINA RESULT:    -4.083     16.928     18.334
REMARK INTER + INTRA:          -6.870
REMARK INTER:                  -6.318
REMARK INTRA:                  -0.552
REMARK UNBOUND:                -0.639
REMARK  Name = 7799
REMARK  10 active torsions:
REMARK  status: ('A' for Active; 'I' for Inactive)
REMARK    1  A    between atoms: O_1  and  C_10
REMARK    2  A    between atoms: O_1  and  C_11
REMARK    3  A    between atoms: C_3  and  C_4
REMARK    4  A    between atoms: C_3  and  C_5
REMARK    5  A    between atoms: C_4  and  C_6
REMARK    6  A    between atoms: C_5  and  C_7
REMARK    7  A    between atoms: C_6  and  C_8
REMARK    8  A    between atoms: C_7  and  C_9
REMARK    9  A    between atoms: C_8  and  C_10
REMARK   10  A    between atoms: C_11  and  C_12
REMARK                            x       y       z     vdW  Elec       q    Type
REMARK                         _______ _______ _______ _____ _____    ______ ____
ROOT
ATOM      1  C   UNL     1     -20.712  -3.786   5.241  0.00  0.00    +0.000 C 
ATOM      2  H   UNL     1     -21.235  -4.229   6.097  0.00  0.00    +0.000 HD
ATOM      3  H   UNL     1     -19.748  -3.412   5.609  0.00  0.00    +0.000 HD
ENDROOT
BRANCH   1   4
ATOM      4  C   UNL     1     -20.474  -4.853   4.172  0.00  0.00    +0.000 C 
ATOM      5  H   UNL     1     -20.796  -5.831   4.550  0.00  0.00    +0.000 HD
ATOM      6  H   UNL     1     -21.085  -4.629   3.289  0.00  0.00    +0.000 HD
BRANCH   4   7
ATOM      7  C   UNL     1     -18.999  -4.918   3.769  0.00  0.00    +0.000 C 
ATOM      8  H   UNL     1     -18.555  -5.847   4.145  0.00  0.00    +0.000 HD
ATOM      9  H   UNL     1     -18.456  -4.087   4.236  0.00  0.00    +0.000 HD
BRANCH   7  10
ATOM     10  C   UNL     1     -18.835  -4.846   2.251  0.00  0.00    +0.000 C 
ATOM     11  H   UNL     1     -19.290  -3.925   1.870  0.00  0.00    +0.000 HD
ATOM     12  H   UNL     1     -19.356  -5.686   1.780  0.00  0.00    +0.000 HD
BRANCH  10  13
ATOM     13  C   UNL     1     -17.369  -4.877   1.848  0.00  0.00    +0.000 C 
ATOM     14  H   UNL     1     -17.070  -3.930   1.385  0.00  0.00    +0.000 HD
ATOM     15  H   UNL     1     -17.173  -5.684   1.136  0.00  0.00    +0.000 HD
ATOM     16  H   UNL     1     -16.738  -5.038   2.728  0.00  0.00    +0.000 HD
ENDBRANCH  10  13
ENDBRANCH   7  10
ENDBRANCH   4   7
ENDBRANCH   1   4
BRANCH   1  17
ATOM     17  C   UNL     1     -21.532  -2.616   4.688  0.00  0.00    +0.000 C 
ATOM     18  H   UNL     1     -21.696  -2.758   3.612  0.00  0.00    +0.000 HD
ATOM     19  H   UNL     1     -22.525  -2.616   5.156  0.00  0.00    +0.000 HD
BRANCH  17  20
ATOM     20  C   UNL     1     -20.857  -1.266   4.922  0.00  0.00    +0.000 C 
ATOM     21  H   UNL     1     -19.850  -1.283   4.489  0.00  0.00    +0.000 HD
ATOM     22  H   UNL     1     -21.439  -0.477   4.432  0.00  0.00    +0.000 HD
BRANCH  20  24
ATOM     23  O   UNL     1     -19.667  -0.734   6.976  0.00  0.00    +0.000 OA
ATOM     24  C   UNL     1     -20.725  -0.911   6.387  0.00  0.00    +0.000 C 
BRANCH  24  25
ATOM     25  O   UNL     1     -21.973  -0.791   6.929  0.00  0.00    +0.000 OA
BRANCH  25  26
ATOM     26  C   UNL     1     -22.050  -0.979   8.345  0.00  0.00    +0.000 C 
ATOM     27  H   UNL     1     -21.103  -0.678   8.805  0.00  0.00    +0.000 HD
ATOM     28  H   UNL     1     -22.862  -0.365   8.751  0.00  0.00    +0.000 HD
BRANCH  26  29
ATOM     29  C   UNL     1     -22.319  -2.440   8.635  0.00  0.00    +0.000 C 
ATOM     30  H   UNL     1     -23.331  -2.720   8.330  0.00  0.00    +0.000 HD
ATOM     31  H   UNL     1     -21.601  -3.076   8.106  0.00  0.00    +0.000 HD
ATOM     32  H   UNL     1     -22.201  -2.648   9.704  0.00  0.00    +0.000 HD
ENDBRANCH  26  29
ENDBRANCH  25  26
ENDBRANCH  24  25
ENDBRANCH  20  24
ENDBRANCH  17  20
ENDBRANCH   1  17
TORSDOF 10
ENDMDL
MODEL 9
REMARK VINA RESULT:    -3.988     17.480     19.110
REMARK INTER + INTRA:          -6.725
REMARK INTER:                  -6.359
REMARK INTRA:                  -0.367
REMARK UNBOUND:                -0.639
REMARK  Name = 7799
REMARK  10 active torsions:
REMARK  status: ('A' for Active; 'I' for Inactive)
REMARK    1  A    between atoms: O_1  and  C_10
REMARK    2  A    between atoms: O_1  and  C_11
REMARK    3  A    between atoms: C_3  and  C_4
REMARK    4  A    between atoms: C_3  and  C_5
REMARK    5  A    between atoms: C_4  and  C_6
REMARK    6  A    between atoms: C_5  and  C_7
REMARK    7  A    between atoms: C_6  and  C_8
REMARK    8  A    between atoms: C_7  and  C_9
REMARK    9  A    between atoms: C_8  and  C_10
REMARK   10  A    between atoms: C_11  and  C_12
REMARK                            x       y       z     vdW  Elec       q    Type
REMARK                         _______ _______ _______ _____ _____    ______ ____
ROOT
ATOM      1  C   UNL     1     -21.362  -3.120   5.796  0.00  0.00    +0.000 C 
ATOM      2  H   UNL     1     -21.214  -3.011   6.877  0.00  0.00    +0.000 HD
ATOM      3  H   UNL     1     -22.325  -3.626   5.649  0.00  0.00    +0.000 HD
ENDROOT
BRANCH   1   4
ATOM      4  C   UNL     1     -21.400  -1.740   5.138  0.00  0.00    +0.000 C 
ATOM      5  H   UNL     1     -21.043  -1.815   4.103  0.00  0.00    +0.000 HD
ATOM      6  H   UNL     1     -22.436  -1.383   5.097  0.00  0.00    +0.000 HD
BRANCH   4   7
ATOM      7  C   UNL     1     -20.542  -0.734   5.907  0.00  0.00    +0.000 C 
ATOM      8  H   UNL     1     -20.964   0.272   5.795  0.00  0.00    +0.000 HD
ATOM      9  H   UNL     1     -19.533  -0.711   5.478  0.00  0.00    +0.000 HD
BRANCH   7  10
ATOM     10  C   UNL     1     -20.458  -1.094   7.390  0.00  0.00    +0.000 C 
ATOM     11  H   UNL     1     -19.512  -0.732   7.809  0.00  0.00    +0.000 HD
ATOM     12  H   UNL     1     -20.470  -2.183   7.509  0.00  0.00    +0.000 HD
BRANCH  10  13
ATOM     13  C   UNL     1     -21.611  -0.491   8.175  0.00  0.00    +0.000 C 
ATOM     14  H   UNL     1     -22.545  -1.027   7.974  0.00  0.00    +0.000 HD
ATOM     15  H   UNL     1     -21.756   0.562   7.914  0.00  0.00    +0.000 HD
ATOM     16  H   UNL     1     -21.410  -0.550   9.249  0.00  0.00    +0.000 HD
ENDBRANCH  10  13
ENDBRANCH   7  10
ENDBRANCH   4   7
ENDBRANCH   1   4
BRANCH   1  17
ATOM     17  C   UNL     1     -20.241  -3.985   5.209  0.00  0.00    +0.000 C 
ATOM     18  H   UNL     1     -19.283  -3.455   5.295  0.00  0.00    +0.000 HD
ATOM     19  H   UNL     1     -20.142  -4.903   5.803  0.00  0.00    +0.000 HD
BRANCH  17  20
ATOM     20  C   UNL     1     -20.487  -4.347   3.746  0.00  0.00    +0.000 C 
ATOM     21  H   UNL     1     -21.548  -4.585   3.604  0.00  0.00    +0.000 HD
ATOM     22  H   UNL     1     -20.227  -3.493   3.109  0.00  0.00    +0.000 HD
BRANCH  20  24
ATOM     23  O   UNL     1     -19.201  -6.394   4.016  0.00  0.00    +0.000 OA
ATOM     24  C   UNL     1     -19.680  -5.540   3.282  0.00  0.00    +0.000 C 
BRANCH  24  25
ATOM     25  O   UNL     1     -19.604  -5.523   1.919  0.00  0.00    +0.000 OA
BRANCH  25  26
ATOM     26  C   UNL     1     -18.805  -4.475   1.359  0.00  0.00    +0.000 C 
ATOM     27  H   UNL     1     -18.955  -4.443   0.275  0.00  0.00    +0.000 HD
ATOM     28  H   UNL     1     -19.102  -3.516   1.797  0.00  0.00    +0.000 HD
BRANCH  26  29
ATOM     29  C   UNL     1     -17.348  -4.749   1.667  0.00  0.00    +0.000 C 
ATOM     30  H   UNL     1     -17.235  -5.199   2.657  0.00  0.00    +0.000 HD
ATOM     31  H   UNL     1     -16.917  -5.422   0.919  0.00  0.00    +0.000 HD
ATOM     32  H   UNL     1     -16.767  -3.821   1.632  0.00  0.00    +0.000 HD
ENDBRANCH  26  29
ENDBRANCH  25  26
ENDBRANCH  24  25
ENDBRANCH  20  24
ENDBRANCH  17  20
ENDBRANCH   1  17
TORSDOF 10
ENDMDL
MODEL 10
REMARK VINA RESULT:    -3.937     18.886     21.716
REMARK INTER + INTRA:          -6.648
REMARK INTER:                  -6.008
REMARK INTRA:                  -0.639
REMARK UNBOUND:                -0.639
REMARK  Name = 7799
REMARK  10 active torsions:
REMARK  status: ('A' for Active; 'I' for Inactive)
REMARK    1  A    between atoms: O_1  and  C_10
REMARK    2  A    between atoms: O_1  and  C_11
REMARK    3  A    between atoms: C_3  and  C_4
REMARK    4  A    between atoms: C_3  and  C_5
REMARK    5  A    between atoms: C_4  and  C_6
REMARK    6  A    between atoms: C_5  and  C_7
REMARK    7  A    between atoms: C_6  and  C_8
REMARK    8  A    between atoms: C_7  and  C_9
REMARK    9  A    between atoms: C_8  and  C_10
REMARK   10  A    between atoms: C_11  and  C_12
REMARK                            x       y       z     vdW  Elec       q    Type
REMARK                         _______ _______ _______ _____ _____    ______ ____
ROOT
ATOM      1  C   UNL     1      -3.279   9.891 -10.916  0.00  0.00    +0.000 C 
ATOM      2  H   UNL     1      -4.136   9.210 -10.844  0.00  0.00    +0.000 HD
ATOM      3  H   UNL     1      -3.663  10.911 -10.791  0.00  0.00    +0.000 HD
ENDROOT
BRANCH   1   4
ATOM      4  C   UNL     1      -2.277   9.580  -9.802  0.00  0.00    +0.000 C 
ATOM      5  H   UNL     1      -1.355   9.178 -10.238  0.00  0.00    +0.000 HD
ATOM      6  H   UNL     1      -2.011  10.507  -9.280  0.00  0.00    +0.000 HD
BRANCH   4   7
ATOM      7  C   UNL     1      -2.853   8.576  -8.801  0.00  0.00    +0.000 C 
ATOM      8  H   UNL     1      -3.799   8.957  -8.399  0.00  0.00    +0.000 HD
ATOM      9  H   UNL     1      -2.163   8.467  -7.956  0.00  0.00    +0.000 HD
BRANCH   7  10
ATOM     10  C   UNL     1      -3.082   7.212  -9.453  0.00  0.00    +0.000 C 
ATOM     11  H   UNL     1      -2.189   6.589  -9.336  0.00  0.00    +0.000 HD
ATOM     12  H   UNL     1      -3.253   7.338 -10.527  0.00  0.00    +0.000 HD
BRANCH  10  13
ATOM     13  C   UNL     1      -4.272   6.494  -8.835  0.00  0.00    +0.000 C 
ATOM     14  H   UNL     1      -3.984   5.986  -7.908  0.00  0.00    +0.000 HD
ATOM     15  H   UNL     1      -4.680   5.748  -9.523  0.00  0.00    +0.000 HD
ATOM     16  H   UNL     1      -5.065   7.210  -8.598  0.00  0.00    +0.000 HD
ENDBRANCH  10  13
ENDBRANCH   7  10
ENDBRANCH   4   7
ENDBRANCH   1   4
BRANCH   1  17
ATOM     17  C   UNL     1      -2.632   9.758 -12.298  0.00  0.00    +0.000 C 
ATOM     18  H   UNL     1      -3.265   9.134 -12.943  0.00  0.00    +0.000 HD
ATOM     19  H   UNL     1      -2.584  10.747 -12.773  0.00  0.00    +0.000 HD
BRANCH  17  20
ATOM     20  C   UNL     1      -1.230   9.155 -12.232  0.00  0.00    +0.000 C 
ATOM     21  H   UNL     1      -0.791   9.362 -11.249  0.00  0.00    +0.000 HD
ATOM     22  H   UNL     1      -1.293   8.069 -12.370  0.00  0.00    +0.000 HD
BRANCH  20  24
ATOM     23  O   UNL     1       0.364   9.034 -14.066  0.00  0.00    +0.000 OA
ATOM     24  C   UNL     1      -0.292   9.707 -13.283  0.00  0.00    +0.000 C 
BRANCH  24  25
ATOM     25  O   UNL     1      -0.325  11.072 -13.233  0.00  0.00    +0.000 OA
BRANCH  25  26
ATOM     26  C   UNL     1      -0.156  11.738 -14.489  0.00  0.00    +0.000 C 
ATOM     27  H   UNL     1       0.447  12.641 -14.344  0.00  0.00    +0.000 HD
ATOM     28  H   UNL     1       0.352  11.070 -15.192  0.00  0.00    +0.000 HD
BRANCH  26  29
ATOM     29  C   UNL     1      -1.518  12.114 -15.034  0.00  0.00    +0.000 C 
ATOM     30  H   UNL     1      -1.437  12.508 -16.051  0.00  0.00    +0.000 HD
ATOM     31  H   UNL     1      -2.183  11.244 -15.042  0.00  0.00    +0.000 HD
ATOM     32  H   UNL     1      -1.991  12.871 -14.399  0.00  0.00    +0.000 HD
ENDBRANCH  26  29
ENDBRANCH  25  26
ENDBRANCH  24  25
ENDBRANCH  20  24
ENDBRANCH  17  20
ENDBRANCH   1  17
TORSDOF 10
ENDMDL
