MODEL 1
REMARK VINA RESULT:    -5.371      0.000      0.000
REMARK INTER + INTRA:          -7.038
REMARK INTER:                  -6.592
REMARK INTRA:                  -0.446
REMARK UNBOUND:                -0.410
REMARK  Name = 6877
REMARK  5 active torsions:
REMARK  status: ('A' for Active; 'I' for Inactive)
REMARK    1  A    between atoms: O_1  and  C_8
REMARK    2  A    between atoms: O_1  and  C_10
REMARK    3  A    between atoms: N_3  and  C_5
REMARK    4  A    between atoms: C_4  and  C_8
REMARK    5  A    between atoms: C_10  and  C_12
REMARK                            x       y       z     vdW  Elec       q    Type
REMARK                         _______ _______ _______ _____ _____    ______ ____
ROOT
ATOM      1  C   UNL     1      -9.927   6.067  -5.364  0.00  0.00    +0.000 A 
ATOM      2  C   UNL     1      -8.632   5.746  -4.955  0.00  0.00    +0.000 A 
ATOM      3  C   UNL     1     -10.870   5.056  -5.550  0.00  0.00    +0.000 A 
ATOM      4  C   UNL     1      -8.281   4.415  -4.730  0.00  0.00    +0.000 A 
ATOM      5  C   UNL     1     -10.518   3.725  -5.326  0.00  0.00    +0.000 A 
ATOM      6  C   UNL     1      -9.225   3.404  -4.917  0.00  0.00    +0.000 A 
ATOM      7  H   UNL     1     -11.891   5.272  -5.855  0.00  0.00    +0.000 HD
ATOM      8  H   UNL     1      -7.277   4.152  -4.411  0.00  0.00    +0.000 HD
ATOM      9  H   UNL     1     -11.254   2.939  -5.468  0.00  0.00    +0.000 HD
ATOM     10  H   UNL     1      -8.952   2.368  -4.742  0.00  0.00    +0.000 HD
ENDROOT
BRANCH   2  11
ATOM     11  N   UNL     1      -7.662   6.755  -4.760  0.00  0.00    +0.000 N 
ATOM     12  H   UNL     1      -7.426   7.076  -3.832  0.00  0.00    +0.000 HD
ATOM     13  H   UNL     1      -7.206   7.172  -5.561  0.00  0.00    +0.000 HD
ENDBRANCH   2  11
BRANCH   1  15
ATOM     14  O   UNL     1     -11.281   8.005  -5.055  0.00  0.00    +0.000 OA
ATOM     15  C   UNL     1     -10.325   7.448  -5.606  0.00  0.00    +0.000 C 
BRANCH  15  16
ATOM     16  O   UNL     1      -9.506   8.051  -6.521  0.00  0.00    +0.000 OA
BRANCH  16  17
ATOM     17  C   UNL     1      -9.949   8.048  -7.882  0.00  0.00    +0.000 C 
ATOM     18  H   UNL     1      -9.115   7.769  -8.535  0.00  0.00    +0.000 HD
ATOM     19  H   UNL     1     -10.761   7.322  -7.999  0.00  0.00    +0.000 HD
BRANCH  17  20
ATOM     20  C   UNL     1     -10.443   9.433  -8.242  0.00  0.00    +0.000 C 
ATOM     21  H   UNL     1      -9.803  10.203  -7.801  0.00  0.00    +0.000 HD
ATOM     22  H   UNL     1     -10.458   9.566  -9.329  0.00  0.00    +0.000 HD
ATOM     23  H   UNL     1     -11.469   9.581  -7.890  0.00  0.00    +0.000 HD
ENDBRANCH  17  20
ENDBRANCH  16  17
ENDBRANCH  15  16
ENDBRANCH   1  15
TORSDOF 5
ENDMDL
MODEL 2
REMARK VINA RESULT:    -5.260     16.332     17.587
REMARK INTER + INTRA:          -6.900
REMARK INTER:                  -6.496
REMARK INTRA:                  -0.404
REMARK UNBOUND:                -0.410
REMARK  Name = 6877
REMARK  5 active torsions:
REMARK  status: ('A' for Active; 'I' for Inactive)
REMARK    1  A    between atoms: O_1  and  C_8
REMARK    2  A    between atoms: O_1  and  C_10
REMARK    3  A    between atoms: N_3  and  C_5
REMARK    4  A    between atoms: C_4  and  C_8
REMARK    5  A    between atoms: C_10  and  C_12
REMARK                            x       y       z     vdW  Elec       q    Type
REMARK                         _______ _______ _______ _____ _____    ______ ____
ROOT
ATOM      1  C   UNL     1       5.687   9.495   0.038  0.00  0.00    +0.000 A 
ATOM      2  C   UNL     1       5.452  10.699  -0.625  0.00  0.00    +0.000 A 
ATOM      3  C   UNL     1       4.856   9.103   1.088  0.00  0.00    +0.000 A 
ATOM      4  C   UNL     1       4.385  11.511  -0.239  0.00  0.00    +0.000 A 
ATOM      5  C   UNL     1       3.791   9.916   1.474  0.00  0.00    +0.000 A 
ATOM      6  C   UNL     1       3.555  11.120   0.811  0.00  0.00    +0.000 A 
ATOM      7  H   UNL     1       5.003   8.165   1.618  0.00  0.00    +0.000 HD
ATOM      8  H   UNL     1       4.191  12.452  -0.748  0.00  0.00    +0.000 HD
ATOM      9  H   UNL     1       3.142   9.609   2.290  0.00  0.00    +0.000 HD
ATOM     10  H   UNL     1       2.724  11.752   1.111  0.00  0.00    +0.000 HD
ENDROOT
BRANCH   2  11
ATOM     11  N   UNL     1       6.281  11.114  -1.691  0.00  0.00    +0.000 N 
ATOM     12  H   UNL     1       6.768  10.438  -2.263  0.00  0.00    +0.000 HD
ATOM     13  H   UNL     1       6.401  12.101  -1.877  0.00  0.00    +0.000 HD
ENDBRANCH   2  11
BRANCH   1  15
ATOM     14  O   UNL     1       6.658   7.472  -0.768  0.00  0.00    +0.000 OA
ATOM     15  C   UNL     1       6.793   8.624  -0.341  0.00  0.00    +0.000 C 
BRANCH  15  16
ATOM     16  O   UNL     1       7.999   9.243  -0.165  0.00  0.00    +0.000 OA
BRANCH  16  17
ATOM     17  C   UNL     1       8.991   9.018  -1.173  0.00  0.00    +0.000 C 
ATOM     18  H   UNL     1       9.578   8.130  -0.913  0.00  0.00    +0.000 HD
ATOM     19  H   UNL     1       8.499   8.860  -2.139  0.00  0.00    +0.000 HD
BRANCH  17  20
ATOM     20  C   UNL     1       9.898  10.228  -1.249  0.00  0.00    +0.000 C 
ATOM     21  H   UNL     1      10.949   9.934  -1.175  0.00  0.00    +0.000 HD
ATOM     22  H   UNL     1       9.747  10.764  -2.192  0.00  0.00    +0.000 HD
ATOM     23  H   UNL     1       9.669  10.933  -0.443  0.00  0.00    +0.000 HD
ENDBRANCH  17  20
ENDBRANCH  16  17
ENDBRANCH  15  16
ENDBRANCH   1  15
TORSDOF 5
ENDMDL
MODEL 3
REMARK VINA RESULT:    -5.198      8.951     10.014
REMARK INTER + INTRA:          -6.824
REMARK INTER:                  -6.485
REMARK INTRA:                  -0.339
REMARK UNBOUND:                -0.410
REMARK  Name = 6877
REMARK  5 active torsions:
REMARK  status: ('A' for Active; 'I' for Inactive)
REMARK    1  A    between atoms: O_1  and  C_8
REMARK    2  A    between atoms: O_1  and  C_10
REMARK    3  A    between atoms: N_3  and  C_5
REMARK    4  A    between atoms: C_4  and  C_8
REMARK    5  A    between atoms: C_10  and  C_12
REMARK                            x       y       z     vdW  Elec       q    Type
REMARK                         _______ _______ _______ _____ _____    ______ ____
ROOT
ATOM      1  C   UNL     1      -1.834   7.858 -10.997  0.00  0.00    +0.000 A 
ATOM      2  C   UNL     1      -1.843   9.067 -10.301  0.00  0.00    +0.000 A 
ATOM      3  C   UNL     1      -2.560   6.770 -10.513  0.00  0.00    +0.000 A 
ATOM      4  C   UNL     1      -2.579   9.187  -9.122  0.00  0.00    +0.000 A 
ATOM      5  C   UNL     1      -3.294   6.890  -9.334  0.00  0.00    +0.000 A 
ATOM      6  C   UNL     1      -3.305   8.098  -8.638  0.00  0.00    +0.000 A 
ATOM      7  H   UNL     1      -2.586   5.817 -11.038  0.00  0.00    +0.000 HD
ATOM      8  H   UNL     1      -2.595  10.124  -8.570  0.00  0.00    +0.000 HD
ATOM      9  H   UNL     1      -3.862   6.043  -8.959  0.00  0.00    +0.000 HD
ATOM     10  H   UNL     1      -3.878   8.192  -7.720  0.00  0.00    +0.000 HD
ENDROOT
BRANCH   2  11
ATOM     11  N   UNL     1      -1.115  10.182 -10.774  0.00  0.00    +0.000 N 
ATOM     12  H   UNL     1      -0.302  10.518 -10.278  0.00  0.00    +0.000 HD
ATOM     13  H   UNL     1      -1.420  10.660 -11.612  0.00  0.00    +0.000 HD
ENDBRANCH   2  11
BRANCH   1  15
ATOM     14  O   UNL     1      -0.103   8.396 -12.546  0.00  0.00    +0.000 OA
ATOM     15  C   UNL     1      -1.076   7.700 -12.232  0.00  0.00    +0.000 C 
BRANCH  15  16
ATOM     16  O   UNL     1      -1.576   6.685 -12.999  0.00  0.00    +0.000 OA
BRANCH  16  17
ATOM     17  C   UNL     1      -2.271   7.062 -14.192  0.00  0.00    +0.000 C 
ATOM     18  H   UNL     1      -2.293   8.155 -14.269  0.00  0.00    +0.000 HD
ATOM     19  H   UNL     1      -1.752   6.646 -15.063  0.00  0.00    +0.000 HD
BRANCH  17  20
ATOM     20  C   UNL     1      -3.684   6.523 -14.130  0.00  0.00    +0.000 C 
ATOM     21  H   UNL     1      -3.755   5.553 -14.631  0.00  0.00    +0.000 HD
ATOM     22  H   UNL     1      -4.007   6.408 -13.090  0.00  0.00    +0.000 HD
ATOM     23  H   UNL     1      -4.383   7.219 -14.605  0.00  0.00    +0.000 HD
ENDBRANCH  17  20
ENDBRANCH  16  17
ENDBRANCH  15  16
ENDBRANCH   1  15
TORSDOF 5
ENDMDL
MODEL 4
REMARK VINA RESULT:    -5.076     17.091     18.210
REMARK INTER + INTRA:          -6.674
REMARK INTER:                  -6.170
REMARK INTRA:                  -0.504
REMARK UNBOUND:                -0.410
REMARK  Name = 6877
REMARK  5 active torsions:
REMARK  status: ('A' for Active; 'I' for Inactive)
REMARK    1  A    between atoms: O_1  and  C_8
REMARK    2  A    between atoms: O_1  and  C_10
REMARK    3  A    between atoms: N_3  and  C_5
REMARK    4  A    between atoms: C_4  and  C_8
REMARK    5  A    between atoms: C_10  and  C_12
REMARK                            x       y       z     vdW  Elec       q    Type
REMARK                         _______ _______ _______ _____ _____    ______ ____
ROOT
ATOM      1  C   UNL     1     -21.048  -2.686   4.923  0.00  0.00    +0.000 A 
ATOM      2  C   UNL     1     -20.989  -1.444   4.291  0.00  0.00    +0.000 A 
ATOM      3  C   UNL     1     -20.756  -2.791   6.282  0.00  0.00    +0.000 A 
ATOM      4  C   UNL     1     -20.640  -0.306   5.018  0.00  0.00    +0.000 A 
ATOM      5  C   UNL     1     -20.406  -1.653   7.010  0.00  0.00    +0.000 A 
ATOM      6  C   UNL     1     -20.348  -0.411   6.379  0.00  0.00    +0.000 A 
ATOM      7  H   UNL     1     -20.805  -3.741   6.809  0.00  0.00    +0.000 HD
ATOM      8  H   UNL     1     -20.592   0.667   4.539  0.00  0.00    +0.000 HD
ATOM      9  H   UNL     1     -20.182  -1.735   8.070  0.00  0.00    +0.000 HD
ATOM     10  H   UNL     1     -20.076   0.474   6.946  0.00  0.00    +0.000 HD
ENDROOT
BRANCH   2  11
ATOM     11  N   UNL     1     -21.282  -1.316   2.914  0.00  0.00    +0.000 N 
ATOM     12  H   UNL     1     -21.645  -0.451   2.539  0.00  0.00    +0.000 HD
ATOM     13  H   UNL     1     -21.139  -2.105   2.297  0.00  0.00    +0.000 HD
ENDBRANCH   2  11
BRANCH   1  15
ATOM     14  O   UNL     1     -22.484  -4.490   4.317  0.00  0.00    +0.000 OA
ATOM     15  C   UNL     1     -21.409  -3.893   4.190  0.00  0.00    +0.000 C 
BRANCH  15  16
ATOM     16  O   UNL     1     -20.409  -4.282   3.343  0.00  0.00    +0.000 OA
BRANCH  16  17
ATOM     17  C   UNL     1     -19.874  -5.596   3.538  0.00  0.00    +0.000 C 
ATOM     18  H   UNL     1     -20.678  -6.271   3.854  0.00  0.00    +0.000 HD
ATOM     19  H   UNL     1     -19.443  -5.957   2.599  0.00  0.00    +0.000 HD
BRANCH  17  20
ATOM     20  C   UNL     1     -18.803  -5.537   4.606  0.00  0.00    +0.000 C 
ATOM     21  H   UNL     1     -17.950  -4.940   4.272  0.00  0.00    +0.000 HD
ATOM     22  H   UNL     1     -19.201  -5.100   5.528  0.00  0.00    +0.000 HD
ATOM     23  H   UNL     1     -18.453  -6.544   4.857  0.00  0.00    +0.000 HD
ENDBRANCH  17  20
ENDBRANCH  16  17
ENDBRANCH  15  16
ENDBRANCH   1  15
TORSDOF 5
ENDMDL
MODEL 5
REMARK VINA RESULT:    -5.015      9.372     10.352
REMARK INTER + INTRA:          -6.598
REMARK INTER:                  -6.396
REMARK INTRA:                  -0.202
REMARK UNBOUND:                -0.410
REMARK  Name = 6877
REMARK  5 active torsions:
REMARK  status: ('A' for Active; 'I' for Inactive)
REMARK    1  A    between atoms: O_1  and  C_8
REMARK    2  A    between atoms: O_1  and  C_10
REMARK    3  A    between atoms: N_3  and  C_5
REMARK    4  A    between atoms: C_4  and  C_8
REMARK    5  A    between atoms: C_10  and  C_12
REMARK                            x       y       z     vdW  Elec       q    Type
REMARK                         _______ _______ _______ _____ _____    ______ ____
ROOT
ATOM      1  C   UNL     1      -2.026   7.964 -11.195  0.00  0.00    +0.000 A 
ATOM      2  C   UNL     1      -1.979   9.094 -10.378  0.00  0.00    +0.000 A 
ATOM      3  C   UNL     1      -2.637   6.798 -10.737  0.00  0.00    +0.000 A 
ATOM      4  C   UNL     1      -2.546   9.058  -9.104  0.00  0.00    +0.000 A 
ATOM      5  C   UNL     1      -3.202   6.761  -9.462  0.00  0.00    +0.000 A 
ATOM      6  C   UNL     1      -3.157   7.890  -8.646  0.00  0.00    +0.000 A 
ATOM      7  H   UNL     1      -2.703   5.903 -11.352  0.00  0.00    +0.000 HD
ATOM      8  H   UNL     1      -2.517   9.931  -8.458  0.00  0.00    +0.000 HD
ATOM      9  H   UNL     1      -3.682   5.853  -9.107  0.00  0.00    +0.000 HD
ATOM     10  H   UNL     1      -3.598   7.862  -7.654  0.00  0.00    +0.000 HD
ENDROOT
BRANCH   2  11
ATOM     11  N   UNL     1      -1.365  10.287 -10.824  0.00  0.00    +0.000 N 
ATOM     12  H   UNL     1      -1.823  11.180 -10.710  0.00  0.00    +0.000 HD
ATOM     13  H   UNL     1      -0.460  10.245 -11.275  0.00  0.00    +0.000 HD
ENDBRANCH   2  11
BRANCH   1  15
ATOM     14  O   UNL     1      -1.968   7.451 -13.523  0.00  0.00    +0.000 OA
ATOM     15  C   UNL     1      -1.443   7.970 -12.531  0.00  0.00    +0.000 C 
BRANCH  15  16
ATOM     16  O   UNL     1      -0.242   8.624 -12.550  0.00  0.00    +0.000 OA
BRANCH  16  17
ATOM     17  C   UNL     1       0.250   9.028 -13.833  0.00  0.00    +0.000 C 
ATOM     18  H   UNL     1       1.341   8.923 -13.851  0.00  0.00    +0.000 HD
ATOM     19  H   UNL     1      -0.190   8.393 -14.609  0.00  0.00    +0.000 HD
BRANCH  17  20
ATOM     20  C   UNL     1      -0.131  10.473 -14.073  0.00  0.00    +0.000 C 
ATOM     21  H   UNL     1      -1.159  10.665 -13.753  0.00  0.00    +0.000 HD
ATOM     22  H   UNL     1       0.540  11.144 -13.527  0.00  0.00    +0.000 HD
ATOM     23  H   UNL     1      -0.038  10.725 -15.135  0.00  0.00    +0.000 HD
ENDBRANCH  17  20
ENDBRANCH  16  17
ENDBRANCH  15  16
ENDBRANCH   1  15
TORSDOF 5
ENDMDL
MODEL 6
REMARK VINA RESULT:    -5.003     16.947     18.034
REMARK INTER + INTRA:          -6.583
REMARK INTER:                  -6.159
REMARK INTRA:                  -0.424
REMARK UNBOUND:                -0.410
REMARK  Name = 6877
REMARK  5 active torsions:
REMARK  status: ('A' for Active; 'I' for Inactive)
REMARK    1  A    between atoms: O_1  and  C_8
REMARK    2  A    between atoms: O_1  and  C_10
REMARK    3  A    between atoms: N_3  and  C_5
REMARK    4  A    between atoms: C_4  and  C_8
REMARK    5  A    between atoms: C_10  and  C_12
REMARK                            x       y       z     vdW  Elec       q    Type
REMARK                         _______ _______ _______ _____ _____    ______ ____
ROOT
ATOM      1  C   UNL     1     -20.372  -4.048   4.167  0.00  0.00    +0.000 A 
ATOM      2  C   UNL     1     -19.258  -4.884   4.252  0.00  0.00    +0.000 A 
ATOM      3  C   UNL     1     -20.745  -3.507   2.936  0.00  0.00    +0.000 A 
ATOM      4  C   UNL     1     -18.518  -5.180   3.107  0.00  0.00    +0.000 A 
ATOM      5  C   UNL     1     -20.004  -3.802   1.792  0.00  0.00    +0.000 A 
ATOM      6  C   UNL     1     -18.891  -4.638   1.876  0.00  0.00    +0.000 A 
ATOM      7  H   UNL     1     -21.615  -2.863   2.831  0.00  0.00    +0.000 HD
ATOM      8  H   UNL     1     -17.649  -5.830   3.160  0.00  0.00    +0.000 HD
ATOM      9  H   UNL     1     -20.297  -3.383   0.833  0.00  0.00    +0.000 HD
ATOM     10  H   UNL     1     -18.315  -4.869   0.985  0.00  0.00    +0.000 HD
ENDROOT
BRANCH   2  11
ATOM     11  N   UNL     1     -18.864  -5.443   5.489  0.00  0.00    +0.000 N 
ATOM     12  H   UNL     1     -18.241  -4.945   6.108  0.00  0.00    +0.000 HD
ATOM     13  H   UNL     1     -19.199  -6.360   5.753  0.00  0.00    +0.000 HD
ENDBRANCH   2  11
BRANCH   1  15
ATOM     14  O   UNL     1     -22.329  -4.097   5.528  0.00  0.00    +0.000 OA
ATOM     15  C   UNL     1     -21.166  -3.720   5.345  0.00  0.00    +0.000 C 
BRANCH  15  16
ATOM     16  O   UNL     1     -20.462  -2.943   6.221  0.00  0.00    +0.000 OA
BRANCH  16  17
ATOM     17  C   UNL     1     -20.631  -1.525   6.104  0.00  0.00    +0.000 C 
ATOM     18  H   UNL     1     -19.773  -1.101   5.571  0.00  0.00    +0.000 HD
ATOM     19  H   UNL     1     -21.549  -1.313   5.545  0.00  0.00    +0.000 HD
BRANCH  17  20
ATOM     20  C   UNL     1     -20.723  -0.925   7.491  0.00  0.00    +0.000 C 
ATOM     21  H   UNL     1     -21.709  -1.105   7.930  0.00  0.00    +0.000 HD
ATOM     22  H   UNL     1     -19.960  -1.354   8.148  0.00  0.00    +0.000 HD
ATOM     23  H   UNL     1     -20.543   0.155   7.456  0.00  0.00    +0.000 HD
ENDBRANCH  17  20
ENDBRANCH  16  17
ENDBRANCH  15  16
ENDBRANCH   1  15
TORSDOF 5
ENDMDL
MODEL 7
REMARK VINA RESULT:    -4.909     17.777     18.809
REMARK INTER + INTRA:          -6.468
REMARK INTER:                  -5.928
REMARK INTRA:                  -0.540
REMARK UNBOUND:                -0.410
REMARK  Name = 6877
REMARK  5 active torsions:
REMARK  status: ('A' for Active; 'I' for Inactive)
REMARK    1  A    between atoms: O_1  and  C_8
REMARK    2  A    between atoms: O_1  and  C_10
REMARK    3  A    between atoms: N_3  and  C_5
REMARK    4  A    between atoms: C_4  and  C_8
REMARK    5  A    between atoms: C_10  and  C_12
REMARK                            x       y       z     vdW  Elec       q    Type
REMARK                         _______ _______ _______ _____ _____    ______ ____
ROOT
ATOM      1  C   UNL     1     -21.581  -2.184   5.231  0.00  0.00    +0.000 A 
ATOM      2  C   UNL     1     -22.059  -2.640   6.459  0.00  0.00    +0.000 A 
ATOM      3  C   UNL     1     -20.719  -1.089   5.180  0.00  0.00    +0.000 A 
ATOM      4  C   UNL     1     -21.675  -2.000   7.638  0.00  0.00    +0.000 A 
ATOM      5  C   UNL     1     -20.336  -0.448   6.358  0.00  0.00    +0.000 A 
ATOM      6  C   UNL     1     -20.813  -0.903   7.587  0.00  0.00    +0.000 A 
ATOM      7  H   UNL     1     -20.317  -0.716   4.241  0.00  0.00    +0.000 HD
ATOM      8  H   UNL     1     -22.039  -2.345   8.602  0.00  0.00    +0.000 HD
ATOM      9  H   UNL     1     -19.662   0.403   6.319  0.00  0.00    +0.000 HD
ATOM     10  H   UNL     1     -20.514  -0.405   8.505  0.00  0.00    +0.000 HD
ENDROOT
BRANCH   2  11
ATOM     11  N   UNL     1     -22.932  -3.749   6.532  0.00  0.00    +0.000 N 
ATOM     12  H   UNL     1     -23.927  -3.635   6.398  0.00  0.00    +0.000 HD
ATOM     13  H   UNL     1     -22.559  -4.667   6.736  0.00  0.00    +0.000 HD
ENDBRANCH   2  11
BRANCH   1  15
ATOM     14  O   UNL     1     -23.100  -2.795   3.497  0.00  0.00    +0.000 OA
ATOM     15  C   UNL     1     -21.963  -2.832   3.981  0.00  0.00    +0.000 C 
BRANCH  15  16
ATOM     16  O   UNL     1     -20.905  -3.484   3.412  0.00  0.00    +0.000 OA
BRANCH  16  17
ATOM     17  C   UNL     1     -20.745  -4.867   3.750  0.00  0.00    +0.000 C 
ATOM     18  H   UNL     1     -21.561  -5.175   4.413  0.00  0.00    +0.000 HD
ATOM     19  H   UNL     1     -20.769  -5.470   2.837  0.00  0.00    +0.000 HD
BRANCH  17  20
ATOM     20  C   UNL     1     -19.416  -5.051   4.452  0.00  0.00    +0.000 C 
ATOM     21  H   UNL     1     -18.658  -5.431   3.761  0.00  0.00    +0.000 HD
ATOM     22  H   UNL     1     -19.067  -4.101   4.871  0.00  0.00    +0.000 HD
ATOM     23  H   UNL     1     -19.515  -5.750   5.289  0.00  0.00    +0.000 HD
ENDBRANCH  17  20
ENDBRANCH  16  17
ENDBRANCH  15  16
ENDBRANCH   1  15
TORSDOF 5
ENDMDL
MODEL 8
REMARK VINA RESULT:    -4.811      8.013      9.040
REMARK INTER + INTRA:          -6.347
REMARK INTER:                  -5.840
REMARK INTRA:                  -0.506
REMARK UNBOUND:                -0.410
REMARK  Name = 6877
REMARK  5 active torsions:
REMARK  status: ('A' for Active; 'I' for Inactive)
REMARK    1  A    between atoms: O_1  and  C_8
REMARK    2  A    between atoms: O_1  and  C_10
REMARK    3  A    between atoms: N_3  and  C_5
REMARK    4  A    between atoms: C_4  and  C_8
REMARK    5  A    between atoms: C_10  and  C_12
REMARK                            x       y       z     vdW  Elec       q    Type
REMARK                         _______ _______ _______ _____ _____    ______ ____
ROOT
ATOM      1  C   UNL     1      -3.272   7.082 -11.048  0.00  0.00    +0.000 A 
ATOM      2  C   UNL     1      -4.572   6.823 -11.482  0.00  0.00    +0.000 A 
ATOM      3  C   UNL     1      -2.940   6.917  -9.703  0.00  0.00    +0.000 A 
ATOM      4  C   UNL     1      -5.540   6.399 -10.572  0.00  0.00    +0.000 A 
ATOM      5  C   UNL     1      -3.909   6.493  -8.793  0.00  0.00    +0.000 A 
ATOM      6  C   UNL     1      -5.208   6.234  -9.227  0.00  0.00    +0.000 A 
ATOM      7  H   UNL     1      -1.934   7.097  -9.333  0.00  0.00    +0.000 HD
ATOM      8  H   UNL     1      -6.556   6.193 -10.897  0.00  0.00    +0.000 HD
ATOM      9  H   UNL     1      -3.649   6.361  -7.747  0.00  0.00    +0.000 HD
ATOM     10  H   UNL     1      -5.962   5.903  -8.518  0.00  0.00    +0.000 HD
ENDROOT
BRANCH   2  11
ATOM     11  N   UNL     1      -4.929   6.984 -12.840  0.00  0.00    +0.000 N 
ATOM     12  H   UNL     1      -5.683   6.447 -13.245  0.00  0.00    +0.000 HD
ATOM     13  H   UNL     1      -4.414   7.634 -13.419  0.00  0.00    +0.000 HD
ENDBRANCH   2  11
BRANCH   1  15
ATOM     14  O   UNL     1      -1.330   6.807 -12.403  0.00  0.00    +0.000 OA
ATOM     15  C   UNL     1      -2.238   7.527 -11.974  0.00  0.00    +0.000 C 
BRANCH  15  16
ATOM     16  O   UNL     1      -2.400   8.843 -12.309  0.00  0.00    +0.000 OA
BRANCH  16  17
ATOM     17  C   UNL     1      -1.257   9.692 -12.154  0.00  0.00    +0.000 C 
ATOM     18  H   UNL     1      -0.359   9.154 -12.479  0.00  0.00    +0.000 HD
ATOM     19  H   UNL     1      -1.385  10.591 -12.765  0.00  0.00    +0.000 HD
BRANCH  17  20
ATOM     20  C   UNL     1      -1.125  10.077 -10.696  0.00  0.00    +0.000 C 
ATOM     21  H   UNL     1      -1.657   9.369 -10.054  0.00  0.00    +0.000 HD
ATOM     22  H   UNL     1      -0.071  10.100 -10.397  0.00  0.00    +0.000 HD
ATOM     23  H   UNL     1      -1.526  11.081 -10.524  0.00  0.00    +0.000 HD
ENDBRANCH  17  20
ENDBRANCH  16  17
ENDBRANCH  15  16
ENDBRANCH   1  15
TORSDOF 5
ENDMDL
MODEL 9
REMARK VINA RESULT:    -4.769      8.908     10.076
REMARK INTER + INTRA:          -6.295
REMARK INTER:                  -5.849
REMARK INTRA:                  -0.445
REMARK UNBOUND:                -0.410
REMARK  Name = 6877
REMARK  5 active torsions:
REMARK  status: ('A' for Active; 'I' for Inactive)
REMARK    1  A    between atoms: O_1  and  C_8
REMARK    2  A    between atoms: O_1  and  C_10
REMARK    3  A    between atoms: N_3  and  C_5
REMARK    4  A    between atoms: C_4  and  C_8
REMARK    5  A    between atoms: C_10  and  C_12
REMARK                            x       y       z     vdW  Elec       q    Type
REMARK                         _______ _______ _______ _____ _____    ______ ____
ROOT
ATOM      1  C   UNL     1      -2.750   8.943 -11.220  0.00  0.00    +0.000 A 
ATOM      2  C   UNL     1      -3.101   7.625 -10.927  0.00  0.00    +0.000 A 
ATOM      3  C   UNL     1      -2.595   9.869 -10.189  0.00  0.00    +0.000 A 
ATOM      4  C   UNL     1      -3.296   7.233  -9.603  0.00  0.00    +0.000 A 
ATOM      5  C   UNL     1      -2.791   9.477  -8.865  0.00  0.00    +0.000 A 
ATOM      6  C   UNL     1      -3.141   8.160  -8.571  0.00  0.00    +0.000 A 
ATOM      7  H   UNL     1      -2.309  10.901 -10.381  0.00  0.00    +0.000 HD
ATOM      8  H   UNL     1      -3.568   6.209  -9.361  0.00  0.00    +0.000 HD
ATOM      9  H   UNL     1      -2.666  10.198  -8.062  0.00  0.00    +0.000 HD
ATOM     10  H   UNL     1      -3.292   7.854  -7.540  0.00  0.00    +0.000 HD
ENDROOT
BRANCH   2  11
ATOM     11  N   UNL     1      -3.263   6.671 -11.958  0.00  0.00    +0.000 N 
ATOM     12  H   UNL     1      -2.462   6.222 -12.379  0.00  0.00    +0.000 HD
ATOM     13  H   UNL     1      -4.192   6.445 -12.288  0.00  0.00    +0.000 HD
ENDBRANCH   2  11
BRANCH   1  15
ATOM     14  O   UNL     1      -3.152  10.315 -13.129  0.00  0.00    +0.000 OA
ATOM     15  C   UNL     1      -2.540   9.384 -12.594  0.00  0.00    +0.000 C 
BRANCH  15  16
ATOM     16  O   UNL     1      -1.578   8.638 -13.217  0.00  0.00    +0.000 OA
BRANCH  16  17
ATOM     17  C   UNL     1      -0.219   9.034 -13.005  0.00  0.00    +0.000 C 
ATOM     18  H   UNL     1      -0.197   9.953 -12.409  0.00  0.00    +0.000 HD
ATOM     19  H   UNL     1       0.313   8.240 -12.470  0.00  0.00    +0.000 HD
BRANCH  17  20
ATOM     20  C   UNL     1       0.438   9.278 -14.347  0.00  0.00    +0.000 C 
ATOM     21  H   UNL     1      -0.066   8.713 -15.137  0.00  0.00    +0.000 HD
ATOM     22  H   UNL     1       0.411  10.342 -14.602  0.00  0.00    +0.000 HD
ATOM     23  H   UNL     1       1.492   8.984 -14.320  0.00  0.00    +0.000 HD
ENDBRANCH  17  20
ENDBRANCH  16  17
ENDBRANCH  15  16
ENDBRANCH   1  15
TORSDOF 5
ENDMDL
MODEL 10
REMARK VINA RESULT:    -4.743     15.153     16.262
REMARK INTER + INTRA:          -6.262
REMARK INTER:                  -5.852
REMARK INTRA:                  -0.410
REMARK UNBOUND:                -0.410
REMARK  Name = 6877
REMARK  5 active torsions:
REMARK  status: ('A' for Active; 'I' for Inactive)
REMARK    1  A    between atoms: O_1  and  C_8
REMARK    2  A    between atoms: O_1  and  C_10
REMARK    3  A    between atoms: N_3  and  C_5
REMARK    4  A    between atoms: C_4  and  C_8
REMARK    5  A    between atoms: C_10  and  C_12
REMARK                            x       y       z     vdW  Elec       q    Type
REMARK                         _______ _______ _______ _____ _____    ______ ____
ROOT
ATOM      1  C   UNL     1       2.719  -0.424 -13.616  0.00  0.00    +0.000 A 
ATOM      2  C   UNL     1       3.286  -1.698 -13.572  0.00  0.00    +0.000 A 
ATOM      3  C   UNL     1       3.299   0.570 -14.403  0.00  0.00    +0.000 A 
ATOM      4  C   UNL     1       4.432  -1.977 -14.316  0.00  0.00    +0.000 A 
ATOM      5  C   UNL     1       4.446   0.291 -15.147  0.00  0.00    +0.000 A 
ATOM      6  C   UNL     1       5.012  -0.982 -15.104  0.00  0.00    +0.000 A 
ATOM      7  H   UNL     1       2.876   1.570 -14.471  0.00  0.00    +0.000 HD
ATOM      8  H   UNL     1       4.883  -2.966 -14.292  0.00  0.00    +0.000 HD
ATOM      9  H   UNL     1       4.894   1.065 -15.763  0.00  0.00    +0.000 HD
ATOM     10  H   UNL     1       5.904  -1.200 -15.684  0.00  0.00    +0.000 HD
ENDROOT
BRANCH   2  11
ATOM     11  N   UNL     1       2.714  -2.720 -12.780  0.00  0.00    +0.000 N 
ATOM     12  H   UNL     1       1.802  -3.095 -12.998  0.00  0.00    +0.000 HD
ATOM     13  H   UNL     1       3.218  -3.071 -11.977  0.00  0.00    +0.000 HD
ENDBRANCH   2  11
BRANCH   1  15
ATOM     14  O   UNL     1       1.459   0.797 -12.001  0.00  0.00    +0.000 OA
ATOM     15  C   UNL     1       1.522  -0.100 -12.849  0.00  0.00    +0.000 C 
BRANCH  15  16
ATOM     16  O   UNL     1       0.477  -0.914 -13.188  0.00  0.00    +0.000 OA
BRANCH  16  17
ATOM     17  C   UNL     1      -0.523  -1.129 -12.185  0.00  0.00    +0.000 C 
ATOM     18  H   UNL     1      -0.738  -2.200 -12.112  0.00  0.00    +0.000 HD
ATOM     19  H   UNL     1      -0.155  -0.764 -11.221  0.00  0.00    +0.000 HD
BRANCH  17  20
ATOM     20  C   UNL     1      -1.779  -0.378 -12.574  0.00  0.00    +0.000 C 
ATOM     21  H   UNL     1      -1.849   0.571 -12.035  0.00  0.00    +0.000 HD
ATOM     22  H   UNL     1      -1.789  -0.175 -13.650  0.00  0.00    +0.000 HD
ATOM     23  H   UNL     1      -2.669  -0.976 -12.355  0.00  0.00    +0.000 HD
ENDBRANCH  17  20
ENDBRANCH  16  17
ENDBRANCH  15  16
ENDBRANCH   1  15
TORSDOF 5
ENDMDL
