MODEL 1
REMARK VINA RESULT:    -4.126      0.000      0.000
REMARK INTER + INTRA:          -5.927
REMARK INTER:                  -5.579
REMARK INTRA:                  -0.348
REMARK UNBOUND:                -0.475
REMARK  Name = 62572
REMARK  7 active torsions:
REMARK  status: ('A' for Active; 'I' for Inactive)
REMARK    1  A    between atoms: O_1  and  C_7
REMARK    2  A    between atoms: O_1  and  C_8
REMARK    3  A    between atoms: O_2  and  C_4
REMARK    4  A    between atoms: C_4  and  C_5
REMARK    5  A    between atoms: C_4  and  C_6
REMARK    6  A    between atoms: C_5  and  C_7
REMARK    7  A    between atoms: C_8  and  C_9
REMARK                            x       y       z     vdW  Elec       q    Type
REMARK                         _______ _______ _______ _____ _____    ______ ____
ROOT
ATOM      1  C   UNL     1       4.159   9.521   0.554  0.00  0.00    +0.000 C 
ATOM      2  H   UNL     1       3.406   8.967  -0.021  0.00  0.00    +0.000 HD
ATOM      3  H   UNL     1       5.149   9.119   0.315  0.00  0.00    +0.000 HD
ENDROOT
BRANCH   1   5
ATOM      4  O   UNL     1       2.795   9.352   2.564  0.00  0.00    +0.000 OA
ATOM      5  C   UNL     1       3.890   9.275   2.023  0.00  0.00    +0.000 C 
BRANCH   5   6
ATOM      6  O   UNL     1       5.067   8.959   2.641  0.00  0.00    +0.000 OA
BRANCH   6   7
ATOM      7  C   UNL     1       4.942   8.313   3.912  0.00  0.00    +0.000 C 
ATOM      8  H   UNL     1       5.720   8.686   4.588  0.00  0.00    +0.000 HD
ATOM      9  H   UNL     1       3.956   8.530   4.336  0.00  0.00    +0.000 HD
BRANCH   7  10
ATOM     10  C   UNL     1       5.103   6.820   3.723  0.00  0.00    +0.000 C 
ATOM     11  H   UNL     1       4.514   6.267   4.460  0.00  0.00    +0.000 HD
ATOM     12  H   UNL     1       4.782   6.522   2.719  0.00  0.00    +0.000 HD
ATOM     13  H   UNL     1       6.154   6.529   3.820  0.00  0.00    +0.000 HD
ENDBRANCH   7  10
ENDBRANCH   6   7
ENDBRANCH   5   6
ENDBRANCH   1   5
BRANCH   1  14
ATOM     14  C   UNL     1       4.066  11.002   0.184  0.00  0.00    +0.000 C 
ATOM     15  H   UNL     1       5.052  11.478   0.223  0.00  0.00    +0.000 HD
BRANCH  14  16
ATOM     16  C   UNL     1       3.468  11.184  -1.206  0.00  0.00    +0.000 C 
ATOM     17  H   UNL     1       2.767  12.026  -1.211  0.00  0.00    +0.000 HD
ATOM     18  H   UNL     1       2.897  10.299  -1.508  0.00  0.00    +0.000 HD
ATOM     19  H   UNL     1       4.246  11.373  -1.952  0.00  0.00    +0.000 HD
ENDBRANCH  14  16
BRANCH  14  20
ATOM     20  O   UNL     1       3.224  11.656   1.129  0.00  0.00    +0.000 OA
ATOM     21  H   UNL     1       2.994  12.530   0.771  0.00  0.00    +0.000 HD
ENDBRANCH  14  20
ENDBRANCH   1  14
TORSDOF 7
ENDMDL
MODEL 2
REMARK VINA RESULT:    -3.789      1.243      4.454
REMARK INTER + INTRA:          -5.482
REMARK INTER:                  -5.178
REMARK INTRA:                  -0.305
REMARK UNBOUND:                -0.475
REMARK  Name = 62572
REMARK  7 active torsions:
REMARK  status: ('A' for Active; 'I' for Inactive)
REMARK    1  A    between atoms: O_1  and  C_7
REMARK    2  A    between atoms: O_1  and  C_8
REMARK    3  A    between atoms: O_2  and  C_4
REMARK    4  A    between atoms: C_4  and  C_5
REMARK    5  A    between atoms: C_4  and  C_6
REMARK    6  A    between atoms: C_5  and  C_7
REMARK    7  A    between atoms: C_8  and  C_9
REMARK                            x       y       z     vdW  Elec       q    Type
REMARK                         _______ _______ _______ _____ _____    ______ ____
ROOT
ATOM      1  C   UNL     1       5.233   8.722   2.733  0.00  0.00    +0.000 C 
ATOM      2  H   UNL     1       6.016   9.467   2.927  0.00  0.00    +0.000 HD
ATOM      3  H   UNL     1       5.626   7.971   2.041  0.00  0.00    +0.000 HD
ENDROOT
BRANCH   1   5
ATOM      4  O   UNL     1       2.976   9.620   2.549  0.00  0.00    +0.000 OA
ATOM      5  C   UNL     1       4.080   9.433   2.056  0.00  0.00    +0.000 C 
BRANCH   5   6
ATOM      6  O   UNL     1       4.477   9.827   0.809  0.00  0.00    +0.000 OA
BRANCH   6   7
ATOM      7  C   UNL     1       4.084  11.149   0.425  0.00  0.00    +0.000 C 
ATOM      8  H   UNL     1       3.301  11.508   1.103  0.00  0.00    +0.000 HD
ATOM      9  H   UNL     1       4.949  11.817   0.482  0.00  0.00    +0.000 HD
BRANCH   7  10
ATOM     10  C   UNL     1       3.555  11.113  -0.992  0.00  0.00    +0.000 C 
ATOM     11  H   UNL     1       4.357  10.896  -1.704  0.00  0.00    +0.000 HD
ATOM     12  H   UNL     1       2.777  10.350  -1.094  0.00  0.00    +0.000 HD
ATOM     13  H   UNL     1       3.098  12.072  -1.258  0.00  0.00    +0.000 HD
ENDBRANCH   7  10
ENDBRANCH   6   7
ENDBRANCH   5   6
ENDBRANCH   1   5
BRANCH   1  14
ATOM     14  C   UNL     1       4.824   8.084   4.061  0.00  0.00    +0.000 C 
ATOM     15  H   UNL     1       3.889   7.523   3.954  0.00  0.00    +0.000 HD
BRANCH  14  16
ATOM     16  C   UNL     1       5.915   7.157   4.584  0.00  0.00    +0.000 C 
ATOM     17  H   UNL     1       5.729   6.906   5.634  0.00  0.00    +0.000 HD
ATOM     18  H   UNL     1       6.896   7.644   4.547  0.00  0.00    +0.000 HD
ATOM     19  H   UNL     1       5.960   6.230   4.005  0.00  0.00    +0.000 HD
ENDBRANCH  14  16
BRANCH  14  20
ATOM     20  O   UNL     1       4.609   9.118   5.018  0.00  0.00    +0.000 OA
ATOM     21  H   UNL     1       4.570   9.964   4.540  0.00  0.00    +0.000 HD
ENDBRANCH  14  20
ENDBRANCH   1  14
TORSDOF 7
ENDMDL
MODEL 3
REMARK VINA RESULT:    -3.585     13.412     14.565
REMARK INTER + INTRA:          -5.212
REMARK INTER:                  -4.825
REMARK INTRA:                  -0.387
REMARK UNBOUND:                -0.475
REMARK  Name = 62572
REMARK  7 active torsions:
REMARK  status: ('A' for Active; 'I' for Inactive)
REMARK    1  A    between atoms: O_1  and  C_7
REMARK    2  A    between atoms: O_1  and  C_8
REMARK    3  A    between atoms: O_2  and  C_4
REMARK    4  A    between atoms: C_4  and  C_5
REMARK    5  A    between atoms: C_4  and  C_6
REMARK    6  A    between atoms: C_5  and  C_7
REMARK    7  A    between atoms: C_8  and  C_9
REMARK                            x       y       z     vdW  Elec       q    Type
REMARK                         _______ _______ _______ _____ _____    ______ ____
ROOT
ATOM      1  C   UNL     1      -3.157   9.258 -10.717  0.00  0.00    +0.000 C 
ATOM      2  H   UNL     1      -3.631   8.962 -11.662  0.00  0.00    +0.000 HD
ATOM      3  H   UNL     1      -3.671  10.143 -10.328  0.00  0.00    +0.000 HD
ENDROOT
BRANCH   1   5
ATOM      4  O   UNL     1      -0.928  10.099 -10.214  0.00  0.00    +0.000 OA
ATOM      5  C   UNL     1      -1.724   9.639 -11.021  0.00  0.00    +0.000 C 
BRANCH   5   6
ATOM      6  O   UNL     1      -1.472   9.388 -12.341  0.00  0.00    +0.000 OA
BRANCH   6   7
ATOM      7  C   UNL     1      -0.224   8.744 -12.618  0.00  0.00    +0.000 C 
ATOM      8  H   UNL     1       0.513   9.035 -11.861  0.00  0.00    +0.000 HD
ATOM      9  H   UNL     1      -0.360   7.658 -12.593  0.00  0.00    +0.000 HD
BRANCH   7  10
ATOM     10  C   UNL     1       0.256   9.170 -13.989  0.00  0.00    +0.000 C 
ATOM     11  H   UNL     1       0.140   8.359 -14.713  0.00  0.00    +0.000 HD
ATOM     12  H   UNL     1      -0.308  10.041 -14.340  0.00  0.00    +0.000 HD
ATOM     13  H   UNL     1       1.310   9.466 -13.955  0.00  0.00    +0.000 HD
ENDBRANCH   7  10
ENDBRANCH   6   7
ENDBRANCH   5   6
ENDBRANCH   1   5
BRANCH   1  14
ATOM     14  C   UNL     1      -3.254   8.091  -9.733  0.00  0.00    +0.000 C 
ATOM     15  H   UNL     1      -4.289   7.936  -9.410  0.00  0.00    +0.000 HD
BRANCH  14  16
ATOM     16  C   UNL     1      -2.717   6.806 -10.352  0.00  0.00    +0.000 C 
ATOM     17  H   UNL     1      -2.925   6.787 -11.428  0.00  0.00    +0.000 HD
ATOM     18  H   UNL     1      -3.208   5.926  -9.922  0.00  0.00    +0.000 HD
ATOM     19  H   UNL     1      -1.636   6.714 -10.204  0.00  0.00    +0.000 HD
ENDBRANCH  14  16
BRANCH  14  20
ATOM     20  O   UNL     1      -2.475   8.400  -8.580  0.00  0.00    +0.000 OA
ATOM     21  H   UNL     1      -2.397   7.591  -8.047  0.00  0.00    +0.000 HD
ENDBRANCH  14  20
ENDBRANCH   1  14
TORSDOF 7
ENDMDL
MODEL 4
REMARK VINA RESULT:    -3.537     13.548     14.646
REMARK INTER + INTRA:          -5.149
REMARK INTER:                  -4.660
REMARK INTRA:                  -0.489
REMARK UNBOUND:                -0.475
REMARK  Name = 62572
REMARK  7 active torsions:
REMARK  status: ('A' for Active; 'I' for Inactive)
REMARK    1  A    between atoms: O_1  and  C_7
REMARK    2  A    between atoms: O_1  and  C_8
REMARK    3  A    between atoms: O_2  and  C_4
REMARK    4  A    between atoms: C_4  and  C_5
REMARK    5  A    between atoms: C_4  and  C_6
REMARK    6  A    between atoms: C_5  and  C_7
REMARK    7  A    between atoms: C_8  and  C_9
REMARK                            x       y       z     vdW  Elec       q    Type
REMARK                         _______ _______ _______ _____ _____    ______ ____
ROOT
ATOM      1  C   UNL     1      -1.530   9.834 -12.617  0.00  0.00    +0.000 C 
ATOM      2  H   UNL     1      -1.083  10.809 -12.853  0.00  0.00    +0.000 HD
ATOM      3  H   UNL     1      -2.522   9.782 -13.077  0.00  0.00    +0.000 HD
ENDROOT
BRANCH   1   5
ATOM      4  O   UNL     1      -0.902  10.182 -10.290  0.00  0.00    +0.000 OA
ATOM      5  C   UNL     1      -1.701   9.759 -11.114  0.00  0.00    +0.000 C 
BRANCH   5   6
ATOM      6  O   UNL     1      -2.887   9.140 -10.836  0.00  0.00    +0.000 OA
BRANCH   6   7
ATOM      7  C   UNL     1      -2.840   8.158  -9.795  0.00  0.00    +0.000 C 
ATOM      8  H   UNL     1      -1.980   8.355  -9.146  0.00  0.00    +0.000 HD
ATOM      9  H   UNL     1      -3.761   8.209  -9.204  0.00  0.00    +0.000 HD
BRANCH   7  10
ATOM     10  C   UNL     1      -2.706   6.786 -10.419  0.00  0.00    +0.000 C 
ATOM     11  H   UNL     1      -1.842   6.742 -11.088  0.00  0.00    +0.000 HD
ATOM     12  H   UNL     1      -2.591   6.020  -9.644  0.00  0.00    +0.000 HD
ATOM     13  H   UNL     1      -3.606   6.530 -10.988  0.00  0.00    +0.000 HD
ENDBRANCH   7  10
ENDBRANCH   6   7
ENDBRANCH   5   6
ENDBRANCH   1   5
BRANCH   1  14
ATOM     14  C   UNL     1      -0.616   8.733 -13.156  0.00  0.00    +0.000 C 
ATOM     15  H   UNL     1      -1.200   7.865 -13.481  0.00  0.00    +0.000 HD
BRANCH  14  16
ATOM     16  C   UNL     1       0.230   9.241 -14.317  0.00  0.00    +0.000 C 
ATOM     17  H   UNL     1      -0.287   9.066 -15.267  0.00  0.00    +0.000 HD
ATOM     18  H   UNL     1       1.183   8.703 -14.374  0.00  0.00    +0.000 HD
ATOM     19  H   UNL     1       0.434  10.311 -14.222  0.00  0.00    +0.000 HD
ENDBRANCH  14  16
BRANCH  14  20
ATOM     20  O   UNL     1       0.255   8.310 -12.110  0.00  0.00    +0.000 OA
ATOM     21  H   UNL     1       1.092   8.027 -12.514  0.00  0.00    +0.000 HD
ENDBRANCH  14  20
ENDBRANCH   1  14
TORSDOF 7
ENDMDL
MODEL 5
REMARK VINA RESULT:    -3.490     17.137     18.072
REMARK INTER + INTRA:          -5.086
REMARK INTER:                  -4.519
REMARK INTRA:                  -0.567
REMARK UNBOUND:                -0.475
REMARK  Name = 62572
REMARK  7 active torsions:
REMARK  status: ('A' for Active; 'I' for Inactive)
REMARK    1  A    between atoms: O_1  and  C_7
REMARK    2  A    between atoms: O_1  and  C_8
REMARK    3  A    between atoms: O_2  and  C_4
REMARK    4  A    between atoms: C_4  and  C_5
REMARK    5  A    between atoms: C_4  and  C_6
REMARK    6  A    between atoms: C_5  and  C_7
REMARK    7  A    between atoms: C_8  and  C_9
REMARK                            x       y       z     vdW  Elec       q    Type
REMARK                         _______ _______ _______ _____ _____    ______ ____
ROOT
ATOM      1  C   UNL     1      -2.253  -0.528 -11.737  0.00  0.00    +0.000 C 
ATOM      2  H   UNL     1      -3.240  -0.666 -12.198  0.00  0.00    +0.000 HD
ATOM      3  H   UNL     1      -1.823   0.409 -12.105  0.00  0.00    +0.000 HD
ENDROOT
BRANCH   1   5
ATOM      4  O   UNL     1      -1.755  -2.793 -12.480  0.00  0.00    +0.000 OA
ATOM      5  C   UNL     1      -1.368  -1.668 -12.195  0.00  0.00    +0.000 C 
BRANCH   5   6
ATOM      6  O   UNL     1      -0.073  -1.233 -12.233  0.00  0.00    +0.000 OA
BRANCH   6   7
ATOM      7  C   UNL     1       0.151  -0.028 -12.973  0.00  0.00    +0.000 C 
ATOM      8  H   UNL     1       0.510  -0.278 -13.977  0.00  0.00    +0.000 HD
ATOM      9  H   UNL     1      -0.787   0.532 -13.051  0.00  0.00    +0.000 HD
BRANCH   7  10
ATOM     10  C   UNL     1       1.188   0.806 -12.252  0.00  0.00    +0.000 C 
ATOM     11  H   UNL     1       2.132   0.819 -12.804  0.00  0.00    +0.000 HD
ATOM     12  H   UNL     1       0.837   1.837 -12.131  0.00  0.00    +0.000 HD
ATOM     13  H   UNL     1       1.371   0.412 -11.247  0.00  0.00    +0.000 HD
ENDBRANCH   7  10
ENDBRANCH   6   7
ENDBRANCH   5   6
ENDBRANCH   1   5
BRANCH   1  14
ATOM     14  C   UNL     1      -2.422  -0.495 -10.218  0.00  0.00    +0.000 C 
ATOM     15  H   UNL     1      -1.952   0.398  -9.791  0.00  0.00    +0.000 HD
BRANCH  14  16
ATOM     16  C   UNL     1      -3.895  -0.529  -9.828  0.00  0.00    +0.000 C 
ATOM     17  H   UNL     1      -4.018  -1.014  -8.853  0.00  0.00    +0.000 HD
ATOM     18  H   UNL     1      -4.478  -1.116 -10.546  0.00  0.00    +0.000 HD
ATOM     19  H   UNL     1      -4.315   0.479  -9.772  0.00  0.00    +0.000 HD
ENDBRANCH  14  16
BRANCH  14  20
ATOM     20  O   UNL     1      -1.778  -1.638  -9.662  0.00  0.00    +0.000 OA
ATOM     21  H   UNL     1      -0.904  -1.720 -10.078  0.00  0.00    +0.000 HD
ENDBRANCH  14  20
ENDBRANCH   1  14
TORSDOF 7
ENDMDL
MODEL 6
REMARK VINA RESULT:    -3.366     13.417     14.556
REMARK INTER + INTRA:          -4.922
REMARK INTER:                  -4.422
REMARK INTRA:                  -0.500
REMARK UNBOUND:                -0.475
REMARK  Name = 62572
REMARK  7 active torsions:
REMARK  status: ('A' for Active; 'I' for Inactive)
REMARK    1  A    between atoms: O_1  and  C_7
REMARK    2  A    between atoms: O_1  and  C_8
REMARK    3  A    between atoms: O_2  and  C_4
REMARK    4  A    between atoms: C_4  and  C_5
REMARK    5  A    between atoms: C_4  and  C_6
REMARK    6  A    between atoms: C_5  and  C_7
REMARK    7  A    between atoms: C_8  and  C_9
REMARK                            x       y       z     vdW  Elec       q    Type
REMARK                         _______ _______ _______ _____ _____    ______ ____
ROOT
ATOM      1  C   UNL     1      -8.421  10.257   8.675  0.00  0.00    +0.000 C 
ATOM      2  H   UNL     1      -9.125  10.807   9.313  0.00  0.00    +0.000 HD
ATOM      3  H   UNL     1      -7.634  10.943   8.348  0.00  0.00    +0.000 HD
ENDROOT
BRANCH   1   5
ATOM      4  O   UNL     1     -10.308   9.313   7.457  0.00  0.00    +0.000 OA
ATOM      5  C   UNL     1      -9.180   9.789   7.451  0.00  0.00    +0.000 C 
BRANCH   5   6
ATOM      6  O   UNL     1      -8.399   9.982   6.347  0.00  0.00    +0.000 OA
BRANCH   6   7
ATOM      7  C   UNL     1      -8.545  11.252   5.703  0.00  0.00    +0.000 C 
ATOM      8  H   UNL     1      -9.532  11.310   5.230  0.00  0.00    +0.000 HD
ATOM      9  H   UNL     1      -8.451  12.051   6.446  0.00  0.00    +0.000 HD
BRANCH   7  10
ATOM     10  C   UNL     1      -7.466  11.398   4.653  0.00  0.00    +0.000 C 
ATOM     11  H   UNL     1      -6.934  12.347   4.767  0.00  0.00    +0.000 HD
ATOM     12  H   UNL     1      -6.743  10.578   4.726  0.00  0.00    +0.000 HD
ATOM     13  H   UNL     1      -7.897  11.354   3.647  0.00  0.00    +0.000 HD
ENDBRANCH   7  10
ENDBRANCH   6   7
ENDBRANCH   5   6
ENDBRANCH   1   5
BRANCH   1  14
ATOM     14  C   UNL     1      -7.837   9.094   9.479  0.00  0.00    +0.000 C 
ATOM     15  H   UNL     1      -6.844   9.347   9.867  0.00  0.00    +0.000 HD
BRANCH  14  16
ATOM     16  C   UNL     1      -8.752   8.712  10.635  0.00  0.00    +0.000 C 
ATOM     17  H   UNL     1      -9.603   8.126  10.268  0.00  0.00    +0.000 HD
ATOM     18  H   UNL     1      -9.169   9.602  11.119  0.00  0.00    +0.000 HD
ATOM     19  H   UNL     1      -8.219   8.120  11.385  0.00  0.00    +0.000 HD
ENDBRANCH  14  16
BRANCH  14  20
ATOM     20  O   UNL     1      -7.698   7.968   8.617  0.00  0.00    +0.000 OA
ATOM     21  H   UNL     1      -7.075   7.348   9.033  0.00  0.00    +0.000 HD
ENDBRANCH  14  20
ENDBRANCH   1  14
TORSDOF 7
ENDMDL
MODEL 7
REMARK VINA RESULT:    -3.334     27.414     29.106
REMARK INTER + INTRA:          -4.881
REMARK INTER:                  -4.519
REMARK INTRA:                  -0.362
REMARK UNBOUND:                -0.475
REMARK  Name = 62572
REMARK  7 active torsions:
REMARK  status: ('A' for Active; 'I' for Inactive)
REMARK    1  A    between atoms: O_1  and  C_7
REMARK    2  A    between atoms: O_1  and  C_8
REMARK    3  A    between atoms: O_2  and  C_4
REMARK    4  A    between atoms: C_4  and  C_5
REMARK    5  A    between atoms: C_4  and  C_6
REMARK    6  A    between atoms: C_5  and  C_7
REMARK    7  A    between atoms: C_8  and  C_9
REMARK                            x       y       z     vdW  Elec       q    Type
REMARK                         _______ _______ _______ _____ _____    ______ ____
ROOT
ATOM      1  C   UNL     1      -8.724 -12.197  16.731  0.00  0.00    +0.000 C 
ATOM      2  H   UNL     1      -9.099 -11.460  17.452  0.00  0.00    +0.000 HD
ATOM      3  H   UNL     1      -9.577 -12.728  16.295  0.00  0.00    +0.000 HD
ENDROOT
BRANCH   1   5
ATOM      4  O   UNL     1      -8.296 -13.953  18.363  0.00  0.00    +0.000 OA
ATOM      5  C   UNL     1      -7.883 -13.199  17.493  0.00  0.00    +0.000 C 
BRANCH   5   6
ATOM      6  O   UNL     1      -6.592 -13.117  17.052  0.00  0.00    +0.000 OA
BRANCH   6   7
ATOM      7  C   UNL     1      -5.652 -13.953  17.737  0.00  0.00    +0.000 C 
ATOM      8  H   UNL     1      -6.120 -14.365  18.638  0.00  0.00    +0.000 HD
ATOM      9  H   UNL     1      -5.347 -14.773  17.079  0.00  0.00    +0.000 HD
BRANCH   7  10
ATOM     10  C   UNL     1      -4.445 -13.125  18.120  0.00  0.00    +0.000 C 
ATOM     11  H   UNL     1      -4.020 -13.468  19.068  0.00  0.00    +0.000 HD
ATOM     12  H   UNL     1      -3.674 -13.186  17.345  0.00  0.00    +0.000 HD
ATOM     13  H   UNL     1      -4.716 -12.068  18.216  0.00  0.00    +0.000 HD
ENDBRANCH   7  10
ENDBRANCH   6   7
ENDBRANCH   5   6
ENDBRANCH   1   5
BRANCH   1  14
ATOM     14  C   UNL     1      -7.924 -11.465  15.652  0.00  0.00    +0.000 C 
ATOM     15  H   UNL     1      -7.180 -12.129  15.199  0.00  0.00    +0.000 HD
BRANCH  14  16
ATOM     16  C   UNL     1      -8.841 -10.914  14.567  0.00  0.00    +0.000 C 
ATOM     17  H   UNL     1      -8.716  -9.829  14.479  0.00  0.00    +0.000 HD
ATOM     18  H   UNL     1      -9.894 -11.089  14.815  0.00  0.00    +0.000 HD
ATOM     19  H   UNL     1      -8.627 -11.370  13.596  0.00  0.00    +0.000 HD
ENDBRANCH  14  16
BRANCH  14  20
ATOM     20  O   UNL     1      -7.231 -10.377  16.258  0.00  0.00    +0.000 OA
ATOM     21  H   UNL     1      -7.045  -9.719  15.566  0.00  0.00    +0.000 HD
ENDBRANCH  14  20
ENDBRANCH   1  14
TORSDOF 7
ENDMDL
MODEL 8
REMARK VINA RESULT:    -3.322     27.403     28.112
REMARK INTER + INTRA:          -4.864
REMARK INTER:                  -4.487
REMARK INTRA:                  -0.378
REMARK UNBOUND:                -0.475
REMARK  Name = 62572
REMARK  7 active torsions:
REMARK  status: ('A' for Active; 'I' for Inactive)
REMARK    1  A    between atoms: O_1  and  C_7
REMARK    2  A    between atoms: O_1  and  C_8
REMARK    3  A    between atoms: O_2  and  C_4
REMARK    4  A    between atoms: C_4  and  C_5
REMARK    5  A    between atoms: C_4  and  C_6
REMARK    6  A    between atoms: C_5  and  C_7
REMARK    7  A    between atoms: C_8  and  C_9
REMARK                            x       y       z     vdW  Elec       q    Type
REMARK                         _______ _______ _______ _____ _____    ______ ____
ROOT
ATOM      1  C   UNL     1     -20.419  -3.317   4.235  0.00  0.00    +0.000 C 
ATOM      2  H   UNL     1     -19.590  -2.596   4.249  0.00  0.00    +0.000 HD
ATOM      3  H   UNL     1     -20.931  -3.243   3.270  0.00  0.00    +0.000 HD
ENDROOT
BRANCH   1   5
ATOM      4  O   UNL     1     -22.131  -3.683   5.928  0.00  0.00    +0.000 OA
ATOM      5  C   UNL     1     -21.394  -2.917   5.321  0.00  0.00    +0.000 C 
BRANCH   5   6
ATOM      6  O   UNL     1     -21.317  -1.565   5.507  0.00  0.00    +0.000 OA
BRANCH   6   7
ATOM      7  C   UNL     1     -20.378  -1.132   6.498  0.00  0.00    +0.000 C 
ATOM      8  H   UNL     1     -19.684  -1.949   6.724  0.00  0.00    +0.000 HD
ATOM      9  H   UNL     1     -19.816  -0.273   6.116  0.00  0.00    +0.000 HD
BRANCH   7  10
ATOM     10  C   UNL     1     -21.130  -0.738   7.750  0.00  0.00    +0.000 C 
ATOM     11  H   UNL     1     -22.032  -0.171   7.503  0.00  0.00    +0.000 HD
ATOM     12  H   UNL     1     -21.418  -1.627   8.322  0.00  0.00    +0.000 HD
ATOM     13  H   UNL     1     -20.498  -0.130   8.405  0.00  0.00    +0.000 HD
ENDBRANCH   7  10
ENDBRANCH   6   7
ENDBRANCH   5   6
ENDBRANCH   1   5
BRANCH   1  14
ATOM     14  C   UNL     1     -19.851  -4.721   4.449  0.00  0.00    +0.000 C 
ATOM     15  H   UNL     1     -20.638  -5.478   4.360  0.00  0.00    +0.000 HD
BRANCH  14  16
ATOM     16  C   UNL     1     -18.741  -5.022   3.449  0.00  0.00    +0.000 C 
ATOM     17  H   UNL     1     -18.924  -4.493   2.508  0.00  0.00    +0.000 HD
ATOM     18  H   UNL     1     -18.708  -6.090   3.208  0.00  0.00    +0.000 HD
ATOM     19  H   UNL     1     -17.764  -4.717   3.837  0.00  0.00    +0.000 HD
ENDBRANCH  14  16
BRANCH  14  20
ATOM     20  O   UNL     1     -19.312  -4.799   5.765  0.00  0.00    +0.000 OA
ATOM     21  H   UNL     1     -19.638  -5.618   6.174  0.00  0.00    +0.000 HD
ENDBRANCH  14  20
ENDBRANCH   1  14
TORSDOF 7
ENDMDL
MODEL 9
REMARK VINA RESULT:    -3.262     27.173     27.965
REMARK INTER + INTRA:          -4.786
REMARK INTER:                  -4.438
REMARK INTRA:                  -0.348
REMARK UNBOUND:                -0.475
REMARK  Name = 62572
REMARK  7 active torsions:
REMARK  status: ('A' for Active; 'I' for Inactive)
REMARK    1  A    between atoms: O_1  and  C_7
REMARK    2  A    between atoms: O_1  and  C_8
REMARK    3  A    between atoms: O_2  and  C_4
REMARK    4  A    between atoms: C_4  and  C_5
REMARK    5  A    between atoms: C_4  and  C_6
REMARK    6  A    between atoms: C_5  and  C_7
REMARK    7  A    between atoms: C_8  and  C_9
REMARK                            x       y       z     vdW  Elec       q    Type
REMARK                         _______ _______ _______ _____ _____    ______ ____
ROOT
ATOM      1  C   UNL     1     -18.913  -4.920   3.777  0.00  0.00    +0.000 C 
ATOM      2  H   UNL     1     -18.553  -5.850   4.237  0.00  0.00    +0.000 HD
ATOM      3  H   UNL     1     -18.286  -4.092   4.123  0.00  0.00    +0.000 HD
ENDROOT
BRANCH   1   5
ATOM      4  O   UNL     1     -21.344  -4.936   3.641  0.00  0.00    +0.000 OA
ATOM      5  C   UNL     1     -20.325  -4.681   4.268  0.00  0.00    +0.000 C 
BRANCH   5   6
ATOM      6  O   UNL     1     -20.271  -4.134   5.519  0.00  0.00    +0.000 OA
BRANCH   6   7
ATOM      7  C   UNL     1     -21.263  -3.141   5.801  0.00  0.00    +0.000 C 
ATOM      8  H   UNL     1     -22.205  -3.419   5.314  0.00  0.00    +0.000 HD
ATOM      9  H   UNL     1     -21.418  -3.079   6.883  0.00  0.00    +0.000 HD
BRANCH   7  10
ATOM     10  C   UNL     1     -20.788  -1.806   5.272  0.00  0.00    +0.000 C 
ATOM     11  H   UNL     1     -20.304  -1.921   4.298  0.00  0.00    +0.000 HD
ATOM     12  H   UNL     1     -21.629  -1.112   5.168  0.00  0.00    +0.000 HD
ATOM     13  H   UNL     1     -20.079  -1.345   5.967  0.00  0.00    +0.000 HD
ENDBRANCH   7  10
ENDBRANCH   6   7
ENDBRANCH   5   6
ENDBRANCH   1   5
BRANCH   1  14
ATOM     14  C   UNL     1     -18.841  -5.065   2.256  0.00  0.00    +0.000 C 
ATOM     15  H   UNL     1     -19.496  -4.340   1.763  0.00  0.00    +0.000 HD
BRANCH  14  16
ATOM     16  C   UNL     1     -17.413  -4.884   1.755  0.00  0.00    +0.000 C 
ATOM     17  H   UNL     1     -17.073  -3.859   1.940  0.00  0.00    +0.000 HD
ATOM     18  H   UNL     1     -17.352  -5.045   0.673  0.00  0.00    +0.000 HD
ATOM     19  H   UNL     1     -16.726  -5.574   2.253  0.00  0.00    +0.000 HD
ENDBRANCH  14  16
BRANCH  14  20
ATOM     20  O   UNL     1     -19.285  -6.372   1.901  0.00  0.00    +0.000 OA
ATOM     21  H   UNL     1     -18.852  -7.007   2.497  0.00  0.00    +0.000 HD
ENDBRANCH  14  20
ENDBRANCH   1  14
TORSDOF 7
ENDMDL
MODEL 10
REMARK VINA RESULT:    -3.210      6.085      7.088
REMARK INTER + INTRA:          -4.716
REMARK INTER:                  -4.242
REMARK INTRA:                  -0.475
REMARK UNBOUND:                -0.475
REMARK  Name = 62572
REMARK  7 active torsions:
REMARK  status: ('A' for Active; 'I' for Inactive)
REMARK    1  A    between atoms: O_1  and  C_7
REMARK    2  A    between atoms: O_1  and  C_8
REMARK    3  A    between atoms: O_2  and  C_4
REMARK    4  A    between atoms: C_4  and  C_5
REMARK    5  A    between atoms: C_4  and  C_6
REMARK    6  A    between atoms: C_5  and  C_7
REMARK    7  A    between atoms: C_8  and  C_9
REMARK                            x       y       z     vdW  Elec       q    Type
REMARK                         _______ _______ _______ _____ _____    ______ ____
ROOT
ATOM      1  C   UNL     1       9.960  12.320   6.581  0.00  0.00    +0.000 C 
ATOM      2  H   UNL     1      10.511  11.625   5.933  0.00  0.00    +0.000 HD
ATOM      3  H   UNL     1      10.533  12.471   7.501  0.00  0.00    +0.000 HD
ENDROOT
BRANCH   1   5
ATOM      4  O   UNL     1       7.963  11.939   7.922  0.00  0.00    +0.000 OA
ATOM      5  C   UNL     1       8.645  11.663   6.945  0.00  0.00    +0.000 C 
BRANCH   5   6
ATOM      6  O   UNL     1       8.351  10.715   6.005  0.00  0.00    +0.000 OA
BRANCH   6   7
ATOM      7  C   UNL     1       7.402   9.721   6.409  0.00  0.00    +0.000 C 
ATOM      8  H   UNL     1       7.623   9.402   7.434  0.00  0.00    +0.000 HD
ATOM      9  H   UNL     1       6.392  10.143   6.369  0.00  0.00    +0.000 HD
BRANCH   7  10
ATOM     10  C   UNL     1       7.501   8.537   5.471  0.00  0.00    +0.000 C 
ATOM     11  H   UNL     1       6.678   7.837   5.637  0.00  0.00    +0.000 HD
ATOM     12  H   UNL     1       7.477   8.870   4.428  0.00  0.00    +0.000 HD
ATOM     13  H   UNL     1       8.449   8.009   5.615  0.00  0.00    +0.000 HD
ENDBRANCH   7  10
ENDBRANCH   6   7
ENDBRANCH   5   6
ENDBRANCH   1   5
BRANCH   1  14
ATOM     14  C   UNL     1       9.765  13.639   5.831  0.00  0.00    +0.000 C 
ATOM     15  H   UNL     1      10.249  14.465   6.363  0.00  0.00    +0.000 HD
BRANCH  14  16
ATOM     16  C   UNL     1      10.319  13.552   4.415  0.00  0.00    +0.000 C 
ATOM     17  H   UNL     1      10.743  12.558   4.233  0.00  0.00    +0.000 HD
ATOM     18  H   UNL     1      11.131  14.272   4.265  0.00  0.00    +0.000 HD
ATOM     19  H   UNL     1       9.539  13.740   3.670  0.00  0.00    +0.000 HD
ENDBRANCH  14  16
BRANCH  14  20
ATOM     20  O   UNL     1       8.370  13.920   5.757  0.00  0.00    +0.000 OA
ATOM     21  H   UNL     1       8.245  14.648   5.125  0.00  0.00    +0.000 HD
ENDBRANCH  14  20
ENDBRANCH   1  14
TORSDOF 7
ENDMDL
