MODEL 1
REMARK VINA RESULT:    -3.520      0.000      0.000
REMARK INTER + INTRA:          -4.448
REMARK INTER:                  -4.354
REMARK INTRA:                  -0.094
REMARK UNBOUND:                -0.104
REMARK  Name = 7749
REMARK  5 active torsions:
REMARK  status: ('A' for Active; 'I' for Inactive)
REMARK    1  A    between atoms: O_1  and  C_4
REMARK    2  A    between atoms: O_1  and  C_5
REMARK    3  A    between atoms: C_3  and  C_5
REMARK    4  A    between atoms: C_3  and  C_6
REMARK    5  A    between atoms: C_4  and  C_7
REMARK                            x       y       z     vdW  Elec       q    Type
REMARK                         _______ _______ _______ _____ _____    ______ ____
ROOT
ATOM      1  O   UNL     1       3.276  11.480   1.396  0.00  0.00    +0.000 OA
ATOM      2  C   UNL     1       3.928  11.305   0.377  0.00  0.00    +0.000 C 
ENDROOT
BRANCH   2   3
ATOM      3  C   UNL     1       3.532  10.400  -0.767  0.00  0.00    +0.000 C 
ATOM      4  H   UNL     1       4.413   9.829  -1.078  0.00  0.00    +0.000 HD
ATOM      5  H   UNL     1       2.763   9.708  -0.410  0.00  0.00    +0.000 HD
BRANCH   3   6
ATOM      6  C   UNL     1       2.995  11.180  -1.954  0.00  0.00    +0.000 C 
ATOM      7  H   UNL     1       3.581  12.089  -2.125  0.00  0.00    +0.000 HD
ATOM      8  H   UNL     1       3.035  10.571  -2.861  0.00  0.00    +0.000 HD
ATOM      9  H   UNL     1       1.954  11.481  -1.788  0.00  0.00    +0.000 HD
ENDBRANCH   3   6
ENDBRANCH   2   3
BRANCH   2  10
ATOM     10  O   UNL     1       5.128  11.889   0.082  0.00  0.00    +0.000 OA
BRANCH  10  11
ATOM     11  C   UNL     1       6.254  11.008   0.061  0.00  0.00    +0.000 C 
ATOM     12  H   UNL     1       6.960  11.298   0.848  0.00  0.00    +0.000 HD
ATOM     13  H   UNL     1       5.917   9.981   0.236  0.00  0.00    +0.000 HD
BRANCH  11  14
ATOM     14  C   UNL     1       6.929  11.102  -1.291  0.00  0.00    +0.000 C 
ATOM     15  H   UNL     1       7.974  10.787  -1.229  0.00  0.00    +0.000 HD
ATOM     16  H   UNL     1       6.414  10.473  -2.023  0.00  0.00    +0.000 HD
ATOM     17  H   UNL     1       6.890  12.129  -1.670  0.00  0.00    +0.000 HD
ENDBRANCH  11  14
ENDBRANCH  10  11
ENDBRANCH   2  10
TORSDOF 5
ENDMDL
MODEL 2
REMARK VINA RESULT:    -3.479      1.404      1.987
REMARK INTER + INTRA:          -4.396
REMARK INTER:                  -4.284
REMARK INTRA:                  -0.113
REMARK UNBOUND:                -0.104
REMARK  Name = 7749
REMARK  5 active torsions:
REMARK  status: ('A' for Active; 'I' for Inactive)
REMARK    1  A    between atoms: O_1  and  C_4
REMARK    2  A    between atoms: O_1  and  C_5
REMARK    3  A    between atoms: C_3  and  C_5
REMARK    4  A    between atoms: C_3  and  C_6
REMARK    5  A    between atoms: C_4  and  C_7
REMARK                            x       y       z     vdW  Elec       q    Type
REMARK                         _______ _______ _______ _____ _____    ______ ____
ROOT
ATOM      1  O   UNL     1       3.208  11.644   1.145  0.00  0.00    +0.000 OA
ATOM      2  C   UNL     1       3.836  10.825   0.488  0.00  0.00    +0.000 C 
ENDROOT
BRANCH   2   3
ATOM      3  C   UNL     1       3.751   9.326   0.655  0.00  0.00    +0.000 C 
ATOM      4  H   UNL     1       2.750   8.999   0.353  0.00  0.00    +0.000 HD
ATOM      5  H   UNL     1       4.494   8.862  -0.002  0.00  0.00    +0.000 HD
BRANCH   3   6
ATOM      6  C   UNL     1       4.009   8.894   2.088  0.00  0.00    +0.000 C 
ATOM      7  H   UNL     1       3.581   7.905   2.284  0.00  0.00    +0.000 HD
ATOM      8  H   UNL     1       5.083   8.848   2.286  0.00  0.00    +0.000 HD
ATOM      9  H   UNL     1       3.559   9.598   2.797  0.00  0.00    +0.000 HD
ENDBRANCH   3   6
ENDBRANCH   2   3
BRANCH   2  10
ATOM     10  O   UNL     1       4.722  11.109  -0.512  0.00  0.00    +0.000 OA
BRANCH  10  11
ATOM     11  C   UNL     1       6.032  11.493  -0.084  0.00  0.00    +0.000 C 
ATOM     12  H   UNL     1       6.077  12.583   0.023  0.00  0.00    +0.000 HD
ATOM     13  H   UNL     1       6.252  11.024   0.881  0.00  0.00    +0.000 HD
BRANCH  11  14
ATOM     14  C   UNL     1       7.042  11.038  -1.116  0.00  0.00    +0.000 C 
ATOM     15  H   UNL     1       7.958  11.632  -1.055  0.00  0.00    +0.000 HD
ATOM     16  H   UNL     1       7.295   9.983  -0.968  0.00  0.00    +0.000 HD
ATOM     17  H   UNL     1       6.628  11.128  -2.126  0.00  0.00    +0.000 HD
ENDBRANCH  11  14
ENDBRANCH  10  11
ENDBRANCH   2  10
TORSDOF 5
ENDMDL
MODEL 3
REMARK VINA RESULT:    -3.431      1.755      1.934
REMARK INTER + INTRA:          -4.338
REMARK INTER:                  -4.247
REMARK INTRA:                  -0.091
REMARK UNBOUND:                -0.104
REMARK  Name = 7749
REMARK  5 active torsions:
REMARK  status: ('A' for Active; 'I' for Inactive)
REMARK    1  A    between atoms: O_1  and  C_4
REMARK    2  A    between atoms: O_1  and  C_5
REMARK    3  A    between atoms: C_3  and  C_5
REMARK    4  A    between atoms: C_3  and  C_6
REMARK    5  A    between atoms: C_4  and  C_7
REMARK                            x       y       z     vdW  Elec       q    Type
REMARK                         _______ _______ _______ _____ _____    ______ ____
ROOT
ATOM      1  O   UNL     1       3.213  10.072   2.091  0.00  0.00    +0.000 OA
ATOM      2  C   UNL     1       3.702  10.286   0.990  0.00  0.00    +0.000 C 
ENDROOT
BRANCH   2   3
ATOM      3  C   UNL     1       3.502  11.543   0.177  0.00  0.00    +0.000 C 
ATOM      4  H   UNL     1       2.663  12.103   0.604  0.00  0.00    +0.000 HD
ATOM      5  H   UNL     1       4.410  12.149   0.247  0.00  0.00    +0.000 HD
BRANCH   3   6
ATOM      6  C   UNL     1       3.212  11.241  -1.283  0.00  0.00    +0.000 C 
ATOM      7  H   UNL     1       3.196  12.159  -1.879  0.00  0.00    +0.000 HD
ATOM      8  H   UNL     1       3.978  10.578  -1.695  0.00  0.00    +0.000 HD
ATOM      9  H   UNL     1       2.238  10.752  -1.397  0.00  0.00    +0.000 HD
ENDBRANCH   3   6
ENDBRANCH   2   3
BRANCH   2  10
ATOM     10  O   UNL     1       4.515   9.435   0.296  0.00  0.00    +0.000 OA
BRANCH  10  11
ATOM     11  C   UNL     1       5.909   9.523   0.605  0.00  0.00    +0.000 C 
ATOM     12  H   UNL     1       6.349  10.371   0.068  0.00  0.00    +0.000 HD
ATOM     13  H   UNL     1       6.034   9.671   1.683  0.00  0.00    +0.000 HD
BRANCH  11  14
ATOM     14  C   UNL     1       6.591   8.240   0.181  0.00  0.00    +0.000 C 
ATOM     15  H   UNL     1       5.918   7.385   0.292  0.00  0.00    +0.000 HD
ATOM     16  H   UNL     1       6.913   8.302  -0.863  0.00  0.00    +0.000 HD
ATOM     17  H   UNL     1       7.489   8.064   0.782  0.00  0.00    +0.000 HD
ENDBRANCH  11  14
ENDBRANCH  10  11
ENDBRANCH   2  10
TORSDOF 5
ENDMDL
MODEL 4
REMARK VINA RESULT:    -3.339     11.662     12.696
REMARK INTER + INTRA:          -4.225
REMARK INTER:                  -4.030
REMARK INTRA:                  -0.194
REMARK UNBOUND:                -0.104
REMARK  Name = 7749
REMARK  5 active torsions:
REMARK  status: ('A' for Active; 'I' for Inactive)
REMARK    1  A    between atoms: O_1  and  C_4
REMARK    2  A    between atoms: O_1  and  C_5
REMARK    3  A    between atoms: C_3  and  C_5
REMARK    4  A    between atoms: C_3  and  C_6
REMARK    5  A    between atoms: C_4  and  C_7
REMARK                            x       y       z     vdW  Elec       q    Type
REMARK                         _______ _______ _______ _____ _____    ______ ____
ROOT
ATOM      1  O   UNL     1      -0.899  10.224 -10.255  0.00  0.00    +0.000 OA
ATOM      2  C   UNL     1      -1.934   9.574 -10.205  0.00  0.00    +0.000 C 
ENDROOT
BRANCH   2   3
ATOM      3  C   UNL     1      -2.771   9.363  -8.965  0.00  0.00    +0.000 C 
ATOM      4  H   UNL     1      -2.185   9.674  -8.093  0.00  0.00    +0.000 HD
ATOM      5  H   UNL     1      -3.664   9.991  -9.038  0.00  0.00    +0.000 HD
BRANCH   3   6
ATOM      6  C   UNL     1      -3.190   7.913  -8.797  0.00  0.00    +0.000 C 
ATOM      7  H   UNL     1      -2.662   7.267  -9.506  0.00  0.00    +0.000 HD
ATOM      8  H   UNL     1      -2.965   7.565  -7.784  0.00  0.00    +0.000 HD
ATOM      9  H   UNL     1      -4.265   7.791  -8.970  0.00  0.00    +0.000 HD
ENDBRANCH   3   6
ENDBRANCH   2   3
BRANCH   2  10
ATOM     10  O   UNL     1      -2.523   8.923 -11.251  0.00  0.00    +0.000 OA
BRANCH  10  11
ATOM     11  C   UNL     1      -1.624   8.375 -12.221  0.00  0.00    +0.000 C 
ATOM     12  H   UNL     1      -1.995   8.595 -13.228  0.00  0.00    +0.000 HD
ATOM     13  H   UNL     1      -0.633   8.823 -12.093  0.00  0.00    +0.000 HD
BRANCH  11  14
ATOM     14  C   UNL     1      -1.539   6.876 -12.023  0.00  0.00    +0.000 C 
ATOM     15  H   UNL     1      -0.938   6.412 -12.810  0.00  0.00    +0.000 HD
ATOM     16  H   UNL     1      -1.092   6.641 -11.052  0.00  0.00    +0.000 HD
ATOM     17  H   UNL     1      -2.538   6.429 -12.030  0.00  0.00    +0.000 HD
ENDBRANCH  11  14
ENDBRANCH  10  11
ENDBRANCH   2  10
TORSDOF 5
ENDMDL
MODEL 5
REMARK VINA RESULT:    -3.164     12.492     13.538
REMARK INTER + INTRA:          -4.008
REMARK INTER:                  -3.829
REMARK INTRA:                  -0.179
REMARK UNBOUND:                -0.104
REMARK  Name = 7749
REMARK  5 active torsions:
REMARK  status: ('A' for Active; 'I' for Inactive)
REMARK    1  A    between atoms: O_1  and  C_4
REMARK    2  A    between atoms: O_1  and  C_5
REMARK    3  A    between atoms: C_3  and  C_5
REMARK    4  A    between atoms: C_3  and  C_6
REMARK    5  A    between atoms: C_4  and  C_7
REMARK                            x       y       z     vdW  Elec       q    Type
REMARK                         _______ _______ _______ _____ _____    ______ ____
ROOT
ATOM      1  O   UNL     1      -3.981   6.744 -11.750  0.00  0.00    +0.000 OA
ATOM      2  C   UNL     1      -3.057   6.812 -10.952  0.00  0.00    +0.000 C 
ENDROOT
BRANCH   2   3
ATOM      3  C   UNL     1      -3.204   7.029  -9.464  0.00  0.00    +0.000 C 
ATOM      4  H   UNL     1      -4.246   6.837  -9.187  0.00  0.00    +0.000 HD
ATOM      5  H   UNL     1      -2.557   6.316  -8.944  0.00  0.00    +0.000 HD
BRANCH   3   6
ATOM      6  C   UNL     1      -2.828   8.442  -9.052  0.00  0.00    +0.000 C 
ATOM      7  H   UNL     1      -2.520   9.036  -9.919  0.00  0.00    +0.000 HD
ATOM      8  H   UNL     1      -3.679   8.941  -8.580  0.00  0.00    +0.000 HD
ATOM      9  H   UNL     1      -1.996   8.435  -8.339  0.00  0.00    +0.000 HD
ENDBRANCH   3   6
ENDBRANCH   2   3
BRANCH   2  10
ATOM     10  O   UNL     1      -1.729   6.705 -11.253  0.00  0.00    +0.000 OA
BRANCH  10  11
ATOM     11  C   UNL     1      -1.334   7.268 -12.508  0.00  0.00    +0.000 C 
ATOM     12  H   UNL     1      -0.774   6.522 -13.084  0.00  0.00    +0.000 HD
ATOM     13  H   UNL     1      -2.226   7.567 -13.070  0.00  0.00    +0.000 HD
BRANCH  11  14
ATOM     14  C   UNL     1      -0.460   8.478 -12.253  0.00  0.00    +0.000 C 
ATOM     15  H   UNL     1      -1.021   9.404 -12.408  0.00  0.00    +0.000 HD
ATOM     16  H   UNL     1      -0.075   8.465 -11.229  0.00  0.00    +0.000 HD
ATOM     17  H   UNL     1       0.408   8.473 -12.920  0.00  0.00    +0.000 HD
ENDBRANCH  11  14
ENDBRANCH  10  11
ENDBRANCH   2  10
TORSDOF 5
ENDMDL
MODEL 6
REMARK VINA RESULT:    -3.159     11.926     13.100
REMARK INTER + INTRA:          -4.002
REMARK INTER:                  -3.822
REMARK INTRA:                  -0.180
REMARK UNBOUND:                -0.104
REMARK  Name = 7749
REMARK  5 active torsions:
REMARK  status: ('A' for Active; 'I' for Inactive)
REMARK    1  A    between atoms: O_1  and  C_4
REMARK    2  A    between atoms: O_1  and  C_5
REMARK    3  A    between atoms: C_3  and  C_5
REMARK    4  A    between atoms: C_3  and  C_6
REMARK    5  A    between atoms: C_4  and  C_7
REMARK                            x       y       z     vdW  Elec       q    Type
REMARK                         _______ _______ _______ _____ _____    ______ ____
ROOT
ATOM      1  O   UNL     1      -3.464   6.665  -8.707  0.00  0.00    +0.000 OA
ATOM      2  C   UNL     1      -3.214   7.094  -9.825  0.00  0.00    +0.000 C 
ENDROOT
BRANCH   2   3
ATOM      3  C   UNL     1      -3.987   6.759 -11.079  0.00  0.00    +0.000 C 
ATOM      4  H   UNL     1      -4.306   5.713 -11.021  0.00  0.00    +0.000 HD
ATOM      5  H   UNL     1      -4.872   7.402 -11.123  0.00  0.00    +0.000 HD
BRANCH   3   6
ATOM      6  C   UNL     1      -3.157   6.962 -12.334  0.00  0.00    +0.000 C 
ATOM      7  H   UNL     1      -2.167   7.362 -12.091  0.00  0.00    +0.000 HD
ATOM      8  H   UNL     1      -3.022   6.012 -12.861  0.00  0.00    +0.000 HD
ATOM      9  H   UNL     1      -3.642   7.667 -13.018  0.00  0.00    +0.000 HD
ENDBRANCH   3   6
ENDBRANCH   2   3
BRANCH   2  10
ATOM     10  O   UNL     1      -2.198   7.949 -10.147  0.00  0.00    +0.000 OA
BRANCH  10  11
ATOM     11  C   UNL     1      -2.183   9.186  -9.427  0.00  0.00    +0.000 C 
ATOM     12  H   UNL     1      -2.472   9.006  -8.386  0.00  0.00    +0.000 HD
ATOM     13  H   UNL     1      -1.174   9.611  -9.456  0.00  0.00    +0.000 HD
BRANCH  11  14
ATOM     14  C   UNL     1      -3.162  10.143 -10.072  0.00  0.00    +0.000 C 
ATOM     15  H   UNL     1      -4.148   9.681 -10.179  0.00  0.00    +0.000 HD
ATOM     16  H   UNL     1      -3.263  11.053  -9.472  0.00  0.00    +0.000 HD
ATOM     17  H   UNL     1      -2.806  10.452 -11.060  0.00  0.00    +0.000 HD
ENDBRANCH  11  14
ENDBRANCH  10  11
ENDBRANCH   2  10
TORSDOF 5
ENDMDL
MODEL 7
REMARK VINA RESULT:    -3.155     29.425     30.480
REMARK INTER + INTRA:          -3.997
REMARK INTER:                  -3.885
REMARK INTRA:                  -0.113
REMARK UNBOUND:                -0.104
REMARK  Name = 7749
REMARK  5 active torsions:
REMARK  status: ('A' for Active; 'I' for Inactive)
REMARK    1  A    between atoms: O_1  and  C_4
REMARK    2  A    between atoms: O_1  and  C_5
REMARK    3  A    between atoms: C_3  and  C_5
REMARK    4  A    between atoms: C_3  and  C_6
REMARK    5  A    between atoms: C_4  and  C_7
REMARK                            x       y       z     vdW  Elec       q    Type
REMARK                         _______ _______ _______ _____ _____    ______ ____
ROOT
ATOM      1  O   UNL     1      -9.112  -8.844  14.102  0.00  0.00    +0.000 OA
ATOM      2  C   UNL     1      -9.699  -9.679  14.776  0.00  0.00    +0.000 C 
ENDROOT
BRANCH   2   3
ATOM      3  C   UNL     1      -9.061 -10.893  15.409  0.00  0.00    +0.000 C 
ATOM      4  H   UNL     1      -8.551 -10.579  16.326  0.00  0.00    +0.000 HD
ATOM      5  H   UNL     1      -9.850 -11.607  15.664  0.00  0.00    +0.000 HD
BRANCH   3   6
ATOM      6  C   UNL     1      -8.060 -11.562  14.482  0.00  0.00    +0.000 C 
ATOM      7  H   UNL     1      -7.239 -10.882  14.234  0.00  0.00    +0.000 HD
ATOM      8  H   UNL     1      -7.636 -12.452  14.956  0.00  0.00    +0.000 HD
ATOM      9  H   UNL     1      -8.536 -11.867  13.544  0.00  0.00    +0.000 HD
ENDBRANCH   3   6
ENDBRANCH   2   3
BRANCH   2  10
ATOM     10  O   UNL     1     -11.031  -9.670  15.081  0.00  0.00    +0.000 OA
BRANCH  10  11
ATOM     11  C   UNL     1     -11.384 -10.294  16.319  0.00  0.00    +0.000 C 
ATOM     12  H   UNL     1     -10.607 -11.015  16.599  0.00  0.00    +0.000 HD
ATOM     13  H   UNL     1     -11.472  -9.532  17.100  0.00  0.00    +0.000 HD
BRANCH  11  14
ATOM     14  C   UNL     1     -12.707 -11.010  16.151  0.00  0.00    +0.000 C 
ATOM     15  H   UNL     1     -12.958 -11.584  17.048  0.00  0.00    +0.000 HD
ATOM     16  H   UNL     1     -13.511 -10.293  15.955  0.00  0.00    +0.000 HD
ATOM     17  H   UNL     1     -12.672 -11.691  15.294  0.00  0.00    +0.000 HD
ENDBRANCH  11  14
ENDBRANCH  10  11
ENDBRANCH   2  10
TORSDOF 5
ENDMDL
MODEL 8
REMARK VINA RESULT:    -3.125     29.696     30.348
REMARK INTER + INTRA:          -3.960
REMARK INTER:                  -3.861
REMARK INTRA:                  -0.099
REMARK UNBOUND:                -0.104
REMARK  Name = 7749
REMARK  5 active torsions:
REMARK  status: ('A' for Active; 'I' for Inactive)
REMARK    1  A    between atoms: O_1  and  C_4
REMARK    2  A    between atoms: O_1  and  C_5
REMARK    3  A    between atoms: C_3  and  C_5
REMARK    4  A    between atoms: C_3  and  C_6
REMARK    5  A    between atoms: C_4  and  C_7
REMARK                            x       y       z     vdW  Elec       q    Type
REMARK                         _______ _______ _______ _____ _____    ______ ____
ROOT
ATOM      1  O   UNL     1     -10.344  -9.212  14.257  0.00  0.00    +0.000 OA
ATOM      2  C   UNL     1      -9.774 -10.035  14.960  0.00  0.00    +0.000 C 
ENDROOT
BRANCH   2   3
ATOM      3  C   UNL     1     -10.425 -10.841  16.060  0.00  0.00    +0.000 C 
ATOM      4  H   UNL     1     -10.477 -11.887  15.740  0.00  0.00    +0.000 HD
ATOM      5  H   UNL     1      -9.801 -10.771  16.956  0.00  0.00    +0.000 HD
BRANCH   3   6
ATOM      6  C   UNL     1     -11.823 -10.344  16.382  0.00  0.00    +0.000 C 
ATOM      7  H   UNL     1     -12.454 -11.158  16.755  0.00  0.00    +0.000 HD
ATOM      8  H   UNL     1     -11.785  -9.563  17.147  0.00  0.00    +0.000 HD
ATOM      9  H   UNL     1     -12.308  -9.928  15.492  0.00  0.00    +0.000 HD
ENDBRANCH   3   6
ENDBRANCH   2   3
BRANCH   2  10
ATOM     10  O   UNL     1      -8.454 -10.378  14.883  0.00  0.00    +0.000 OA
BRANCH  10  11
ATOM     11  C   UNL     1      -8.147 -11.731  15.231  0.00  0.00    +0.000 C 
ATOM     12  H   UNL     1      -8.939 -12.131  15.875  0.00  0.00    +0.000 HD
ATOM     13  H   UNL     1      -8.079 -12.336  14.321  0.00  0.00    +0.000 HD
BRANCH  11  14
ATOM     14  C   UNL     1      -6.825 -11.764  15.968  0.00  0.00    +0.000 C 
ATOM     15  H   UNL     1      -6.131 -12.465  15.495  0.00  0.00    +0.000 HD
ATOM     16  H   UNL     1      -6.367 -10.769  15.981  0.00  0.00    +0.000 HD
ATOM     17  H   UNL     1      -6.972 -12.060  17.012  0.00  0.00    +0.000 HD
ENDBRANCH  11  14
ENDBRANCH  10  11
ENDBRANCH   2  10
TORSDOF 5
ENDMDL
MODEL 9
REMARK VINA RESULT:    -3.042     14.970     15.775
REMARK INTER + INTRA:          -3.857
REMARK INTER:                  -3.754
REMARK INTRA:                  -0.103
REMARK UNBOUND:                -0.104
REMARK  Name = 7749
REMARK  5 active torsions:
REMARK  status: ('A' for Active; 'I' for Inactive)
REMARK    1  A    between atoms: O_1  and  C_4
REMARK    2  A    between atoms: O_1  and  C_5
REMARK    3  A    between atoms: C_3  and  C_5
REMARK    4  A    between atoms: C_3  and  C_6
REMARK    5  A    between atoms: C_4  and  C_7
REMARK                            x       y       z     vdW  Elec       q    Type
REMARK                         _______ _______ _______ _____ _____    ______ ____
ROOT
ATOM      1  O   UNL     1      -7.724   6.374  -6.506  0.00  0.00    +0.000 OA
ATOM      2  C   UNL     1      -8.400   5.997  -5.559  0.00  0.00    +0.000 C 
ENDROOT
BRANCH   2   3
ATOM      3  C   UNL     1      -8.176   4.720  -4.783  0.00  0.00    +0.000 C 
ATOM      4  H   UNL     1      -7.251   4.255  -5.140  0.00  0.00    +0.000 HD
ATOM      5  H   UNL     1      -8.065   4.973  -3.724  0.00  0.00    +0.000 HD
BRANCH   3   6
ATOM      6  C   UNL     1      -9.326   3.742  -4.947  0.00  0.00    +0.000 C 
ATOM      7  H   UNL     1      -9.507   3.522  -6.005  0.00  0.00    +0.000 HD
ATOM      8  H   UNL     1      -9.103   2.801  -4.436  0.00  0.00    +0.000 HD
ATOM      9  H   UNL     1     -10.252   4.149  -4.528  0.00  0.00    +0.000 HD
ENDBRANCH   3   6
ENDBRANCH   2   3
BRANCH   2  10
ATOM     10  O   UNL     1      -9.474   6.654  -5.029  0.00  0.00    +0.000 OA
BRANCH  10  11
ATOM     11  C   UNL     1     -10.345   7.277  -5.977  0.00  0.00    +0.000 C 
ATOM     12  H   UNL     1     -10.009   7.039  -6.993  0.00  0.00    +0.000 HD
ATOM     13  H   UNL     1     -11.365   6.903  -5.836  0.00  0.00    +0.000 HD
BRANCH  11  14
ATOM     14  C   UNL     1     -10.315   8.775  -5.766  0.00  0.00    +0.000 C 
ATOM     15  H   UNL     1      -9.314   9.176  -5.952  0.00  0.00    +0.000 HD
ATOM     16  H   UNL     1     -11.024   9.273  -6.435  0.00  0.00    +0.000 HD
ATOM     17  H   UNL     1     -10.612   9.027  -4.743  0.00  0.00    +0.000 HD
ENDBRANCH  11  14
ENDBRANCH  10  11
ENDBRANCH   2  10
TORSDOF 5
ENDMDL
MODEL 10
REMARK VINA RESULT:    -3.037     17.343     18.005
REMARK INTER + INTRA:          -3.852
REMARK INTER:                  -3.747
REMARK INTRA:                  -0.104
REMARK UNBOUND:                -0.104
REMARK  Name = 7749
REMARK  5 active torsions:
REMARK  status: ('A' for Active; 'I' for Inactive)
REMARK    1  A    between atoms: O_1  and  C_4
REMARK    2  A    between atoms: O_1  and  C_5
REMARK    3  A    between atoms: C_3  and  C_5
REMARK    4  A    between atoms: C_3  and  C_6
REMARK    5  A    between atoms: C_4  and  C_7
REMARK                            x       y       z     vdW  Elec       q    Type
REMARK                         _______ _______ _______ _____ _____    ______ ____
ROOT
ATOM      1  O   UNL     1       2.470  -1.891 -13.400  0.00  0.00    +0.000 OA
ATOM      2  C   UNL     1       2.933  -0.769 -13.552  0.00  0.00    +0.000 C 
ENDROOT
BRANCH   2   3
ATOM      3  C   UNL     1       2.125   0.506 -13.610  0.00  0.00    +0.000 C 
ATOM      4  H   UNL     1       2.815   1.350 -13.718  0.00  0.00    +0.000 HD
ATOM      5  H   UNL     1       1.470   0.463 -14.486  0.00  0.00    +0.000 HD
BRANCH   3   6
ATOM      6  C   UNL     1       1.281   0.706 -12.362  0.00  0.00    +0.000 C 
ATOM      7  H   UNL     1       1.875   1.139 -11.551  0.00  0.00    +0.000 HD
ATOM      8  H   UNL     1       0.444   1.378 -12.571  0.00  0.00    +0.000 HD
ATOM      9  H   UNL     1       0.875  -0.247 -12.006  0.00  0.00    +0.000 HD
ENDBRANCH   3   6
ENDBRANCH   2   3
BRANCH   2  10
ATOM     10  O   UNL     1       4.256  -0.461 -13.697  0.00  0.00    +0.000 OA
BRANCH  10  11
ATOM     11  C   UNL     1       4.614   0.148 -14.941  0.00  0.00    +0.000 C 
ATOM     12  H   UNL     1       3.705   0.459 -15.471  0.00  0.00    +0.000 HD
ATOM     13  H   UNL     1       5.241   1.025 -14.751  0.00  0.00    +0.000 HD
BRANCH  11  14
ATOM     14  C   UNL     1       5.376  -0.855 -15.781  0.00  0.00    +0.000 C 
ATOM     15  H   UNL     1       5.506  -0.490 -16.804  0.00  0.00    +0.000 HD
ATOM     16  H   UNL     1       6.362  -1.049 -15.347  0.00  0.00    +0.000 HD
ATOM     17  H   UNL     1       4.847  -1.813 -15.811  0.00  0.00    +0.000 HD
ENDBRANCH  11  14
ENDBRANCH  10  11
ENDBRANCH   2  10
TORSDOF 5
ENDMDL
