MODEL 1
REMARK VINA RESULT:    -5.048      0.000      0.000
REMARK INTER + INTRA:          -8.997
REMARK INTER:                  -7.992
REMARK INTRA:                  -1.005
REMARK UNBOUND:                -0.702
REMARK  Name = 8048
REMARK  12 active torsions:
REMARK  status: ('A' for Active; 'I' for Inactive)
REMARK    1  A    between atoms: O_1  and  C_12
REMARK    2  A    between atoms: O_1  and  C_13
REMARK    3  A    between atoms: C_3  and  C_4
REMARK    4  A    between atoms: C_3  and  C_5
REMARK    5  A    between atoms: C_4  and  C_6
REMARK    6  A    between atoms: C_5  and  C_7
REMARK    7  A    between atoms: C_6  and  C_8
REMARK    8  A    between atoms: C_7  and  C_9
REMARK    9  A    between atoms: C_8  and  C_10
REMARK   10  A    between atoms: C_9  and  C_11
REMARK   11  A    between atoms: C_10  and  C_12
REMARK   12  A    between atoms: C_13  and  C_14
REMARK                            x       y       z     vdW  Elec       q    Type
REMARK                         _______ _______ _______ _____ _____    ______ ____
ROOT
ATOM      1  C   UNL     1       7.160   8.595   2.780  0.00  0.00    +0.000 C 
ATOM      2  H   UNL     1       6.729   9.394   3.395  0.00  0.00    +0.000 HD
ATOM      3  H   UNL     1       8.089   8.277   3.268  0.00  0.00    +0.000 HD
ENDROOT
BRANCH   1   4
ATOM      4  C   UNL     1       7.474   9.136   1.383  0.00  0.00    +0.000 C 
ATOM      5  H   UNL     1       7.075  10.152   1.282  0.00  0.00    +0.000 HD
ATOM      6  H   UNL     1       8.560   9.199   1.248  0.00  0.00    +0.000 HD
BRANCH   4   7
ATOM      7  C   UNL     1       6.878   8.239   0.296  0.00  0.00    +0.000 C 
ATOM      8  H   UNL     1       5.796   8.412   0.237  0.00  0.00    +0.000 HD
ATOM      9  H   UNL     1       7.015   7.188   0.579  0.00  0.00    +0.000 HD
BRANCH   7  10
ATOM     10  C   UNL     1       7.498   8.464  -1.086  0.00  0.00    +0.000 C 
ATOM     11  H   UNL     1       6.714   8.782  -1.785  0.00  0.00    +0.000 HD
ATOM     12  H   UNL     1       7.885   7.507  -1.459  0.00  0.00    +0.000 HD
BRANCH  10  13
ATOM     13  C   UNL     1       8.623   9.500  -1.087  0.00  0.00    +0.000 C 
ATOM     14  H   UNL     1       8.794   9.862  -0.067  0.00  0.00    +0.000 HD
ATOM     15  H   UNL     1       8.330  10.364  -1.694  0.00  0.00    +0.000 HD
BRANCH  13  16
ATOM     16  C   UNL     1       9.916   8.912  -1.632  0.00  0.00    +0.000 C 
ATOM     17  H   UNL     1       9.964   9.012  -2.721  0.00  0.00    +0.000 HD
ATOM     18  H   UNL     1       9.983   7.849  -1.384  0.00  0.00    +0.000 HD
ATOM     19  H   UNL     1      10.787   9.415  -1.200  0.00  0.00    +0.000 HD
ENDBRANCH  13  16
ENDBRANCH  10  13
ENDBRANCH   7  10
ENDBRANCH   4   7
ENDBRANCH   1   4
BRANCH   1  20
ATOM     20  C   UNL     1       6.185   7.418   2.716  0.00  0.00    +0.000 C 
ATOM     21  H   UNL     1       5.799   7.314   1.694  0.00  0.00    +0.000 HD
ATOM     22  H   UNL     1       6.716   6.490   2.957  0.00  0.00    +0.000 HD
BRANCH  20  23
ATOM     23  C   UNL     1       5.017   7.610   3.684  0.00  0.00    +0.000 C 
ATOM     24  H   UNL     1       5.369   7.484   4.715  0.00  0.00    +0.000 HD
ATOM     25  H   UNL     1       4.267   6.828   3.507  0.00  0.00    +0.000 HD
BRANCH  23  26
ATOM     26  C   UNL     1       4.380   8.985   3.519  0.00  0.00    +0.000 C 
ATOM     27  H   UNL     1       3.839   9.257   4.432  0.00  0.00    +0.000 HD
ATOM     28  H   UNL     1       5.151   9.737   3.318  0.00  0.00    +0.000 HD
BRANCH  26  30
ATOM     29  O   UNL     1       2.868   7.978   1.930  0.00  0.00    +0.000 OA
ATOM     30  C   UNL     1       3.407   8.987   2.367  0.00  0.00    +0.000 C 
BRANCH  30  31
ATOM     31  O   UNL     1       3.218  10.261   1.920  0.00  0.00    +0.000 OA
BRANCH  31  32
ATOM     32  C   UNL     1       4.190  10.738   0.986  0.00  0.00    +0.000 C 
ATOM     33  H   UNL     1       5.138  10.211   1.145  0.00  0.00    +0.000 HD
ATOM     34  H   UNL     1       4.343  11.812   1.132  0.00  0.00    +0.000 HD
BRANCH  32  35
ATOM     35  C   UNL     1       3.692  10.479  -0.420  0.00  0.00    +0.000 C 
ATOM     36  H   UNL     1       3.530   9.407  -0.580  0.00  0.00    +0.000 HD
ATOM     37  H   UNL     1       2.729  10.974  -0.585  0.00  0.00    +0.000 HD
ATOM     38  H   UNL     1       4.407  10.843  -1.162  0.00  0.00    +0.000 HD
ENDBRANCH  32  35
ENDBRANCH  31  32
ENDBRANCH  30  31
ENDBRANCH  26  30
ENDBRANCH  23  26
ENDBRANCH  20  23
ENDBRANCH   1  20
TORSDOF 12
ENDMDL
MODEL 2
REMARK VINA RESULT:    -4.993      2.191      4.631
REMARK INTER + INTRA:          -8.905
REMARK INTER:                  -8.231
REMARK INTRA:                  -0.674
REMARK UNBOUND:                -0.702
REMARK  Name = 8048
REMARK  12 active torsions:
REMARK  status: ('A' for Active; 'I' for Inactive)
REMARK    1  A    between atoms: O_1  and  C_12
REMARK    2  A    between atoms: O_1  and  C_13
REMARK    3  A    between atoms: C_3  and  C_4
REMARK    4  A    between atoms: C_3  and  C_5
REMARK    5  A    between atoms: C_4  and  C_6
REMARK    6  A    between atoms: C_5  and  C_7
REMARK    7  A    between atoms: C_6  and  C_8
REMARK    8  A    between atoms: C_7  and  C_9
REMARK    9  A    between atoms: C_8  and  C_10
REMARK   10  A    between atoms: C_9  and  C_11
REMARK   11  A    between atoms: C_10  and  C_12
REMARK   12  A    between atoms: C_13  and  C_14
REMARK                            x       y       z     vdW  Elec       q    Type
REMARK                         _______ _______ _______ _____ _____    ______ ____
ROOT
ATOM      1  C   UNL     1       4.586   8.832   4.047  0.00  0.00    +0.000 C 
ATOM      2  H   UNL     1       5.437   9.524   4.055  0.00  0.00    +0.000 HD
ATOM      3  H   UNL     1       4.071   8.941   5.009  0.00  0.00    +0.000 HD
ENDROOT
BRANCH   1   4
ATOM      4  C   UNL     1       5.094   7.396   3.897  0.00  0.00    +0.000 C 
ATOM      5  H   UNL     1       4.380   6.701   4.353  0.00  0.00    +0.000 HD
ATOM      6  H   UNL     1       5.161   7.139   2.833  0.00  0.00    +0.000 HD
BRANCH   4   7
ATOM      7  C   UNL     1       6.467   7.224   4.550  0.00  0.00    +0.000 C 
ATOM      8  H   UNL     1       7.027   6.447   4.015  0.00  0.00    +0.000 HD
ATOM      9  H   UNL     1       6.335   6.866   5.579  0.00  0.00    +0.000 HD
BRANCH   7  10
ATOM     10  C   UNL     1       7.295   8.512   4.575  0.00  0.00    +0.000 C 
ATOM     11  H   UNL     1       6.650   9.360   4.313  0.00  0.00    +0.000 HD
ATOM     12  H   UNL     1       8.068   8.450   3.798  0.00  0.00    +0.000 HD
BRANCH  10  13
ATOM     13  C   UNL     1       7.957   8.782   5.927  0.00  0.00    +0.000 C 
ATOM     14  H   UNL     1       9.030   8.952   5.787  0.00  0.00    +0.000 HD
ATOM     15  H   UNL     1       7.848   7.905   6.575  0.00  0.00    +0.000 HD
BRANCH  13  16
ATOM     16  C   UNL     1       7.345   9.996   6.610  0.00  0.00    +0.000 C 
ATOM     17  H   UNL     1       6.452  10.338   6.077  0.00  0.00    +0.000 HD
ATOM     18  H   UNL     1       8.064  10.821   6.632  0.00  0.00    +0.000 HD
ATOM     19  H   UNL     1       7.064   9.765   7.642  0.00  0.00    +0.000 HD
ENDBRANCH  13  16
ENDBRANCH  10  13
ENDBRANCH   7  10
ENDBRANCH   4   7
ENDBRANCH   1   4
BRANCH   1  20
ATOM     20  C   UNL     1       3.634   9.208   2.910  0.00  0.00    +0.000 C 
ATOM     21  H   UNL     1       2.671   8.700   3.051  0.00  0.00    +0.000 HD
ATOM     22  H   UNL     1       3.438  10.286   2.939  0.00  0.00    +0.000 HD
BRANCH  20  23
ATOM     23  C   UNL     1       4.216   8.827   1.549  0.00  0.00    +0.000 C 
ATOM     24  H   UNL     1       3.964   7.784   1.319  0.00  0.00    +0.000 HD
ATOM     25  H   UNL     1       5.311   8.887   1.591  0.00  0.00    +0.000 HD
BRANCH  23  26
ATOM     26  C   UNL     1       3.692   9.741   0.447  0.00  0.00    +0.000 C 
ATOM     27  H   UNL     1       3.536   9.165  -0.472  0.00  0.00    +0.000 HD
ATOM     28  H   UNL     1       2.742  10.195   0.753  0.00  0.00    +0.000 HD
BRANCH  26  30
ATOM     29  O   UNL     1       4.559  11.987   0.590  0.00  0.00    +0.000 OA
ATOM     30  C   UNL     1       4.674  10.847   0.159  0.00  0.00    +0.000 C 
BRANCH  30  31
ATOM     31  O   UNL     1       5.691  10.377  -0.618  0.00  0.00    +0.000 OA
BRANCH  31  32
ATOM     32  C   UNL     1       6.726  11.319  -0.914  0.00  0.00    +0.000 C 
ATOM     33  H   UNL     1       6.936  11.922  -0.023  0.00  0.00    +0.000 HD
ATOM     34  H   UNL     1       6.403  11.974  -1.730  0.00  0.00    +0.000 HD
BRANCH  32  35
ATOM     35  C   UNL     1       7.974  10.567  -1.326  0.00  0.00    +0.000 C 
ATOM     36  H   UNL     1       8.865  11.028  -0.885  0.00  0.00    +0.000 HD
ATOM     37  H   UNL     1       7.939   9.534  -0.964  0.00  0.00    +0.000 HD
ATOM     38  H   UNL     1       8.083  10.556  -2.413  0.00  0.00    +0.000 HD
ENDBRANCH  32  35
ENDBRANCH  31  32
ENDBRANCH  30  31
ENDBRANCH  26  30
ENDBRANCH  23  26
ENDBRANCH  20  23
ENDBRANCH   1  20
TORSDOF 12
ENDMDL
MODEL 3
REMARK VINA RESULT:    -4.854     13.939     15.996
REMARK INTER + INTRA:          -8.677
REMARK INTER:                  -7.689
REMARK INTRA:                  -0.988
REMARK UNBOUND:                -0.702
REMARK  Name = 8048
REMARK  12 active torsions:
REMARK  status: ('A' for Active; 'I' for Inactive)
REMARK    1  A    between atoms: O_1  and  C_12
REMARK    2  A    between atoms: O_1  and  C_13
REMARK    3  A    between atoms: C_3  and  C_4
REMARK    4  A    between atoms: C_3  and  C_5
REMARK    5  A    between atoms: C_4  and  C_6
REMARK    6  A    between atoms: C_5  and  C_7
REMARK    7  A    between atoms: C_6  and  C_8
REMARK    8  A    between atoms: C_7  and  C_9
REMARK    9  A    between atoms: C_8  and  C_10
REMARK   10  A    between atoms: C_9  and  C_11
REMARK   11  A    between atoms: C_10  and  C_12
REMARK   12  A    between atoms: C_13  and  C_14
REMARK                            x       y       z     vdW  Elec       q    Type
REMARK                         _______ _______ _______ _____ _____    ______ ____
ROOT
ATOM      1  C   UNL     1      -2.572   9.693 -10.036  0.00  0.00    +0.000 C 
ATOM      2  H   UNL     1      -3.141  10.613  -9.855  0.00  0.00    +0.000 HD
ATOM      3  H   UNL     1      -3.006   9.213 -10.922  0.00  0.00    +0.000 HD
ENDROOT
BRANCH   1   4
ATOM      4  C   UNL     1      -2.707   8.761  -8.830  0.00  0.00    +0.000 C 
ATOM      5  H   UNL     1      -1.715   8.548  -8.414  0.00  0.00    +0.000 HD
ATOM      6  H   UNL     1      -3.288   9.258  -8.044  0.00  0.00    +0.000 HD
BRANCH   4   7
ATOM      7  C   UNL     1      -3.393   7.449  -9.218  0.00  0.00    +0.000 C 
ATOM      8  H   UNL     1      -4.465   7.631  -9.362  0.00  0.00    +0.000 HD
ATOM      9  H   UNL     1      -3.301   6.735  -8.390  0.00  0.00    +0.000 HD
BRANCH   7  10
ATOM     10  C   UNL     1      -2.817   6.813 -10.486  0.00  0.00    +0.000 C 
ATOM     11  H   UNL     1      -2.476   5.796 -10.256  0.00  0.00    +0.000 HD
ATOM     12  H   UNL     1      -1.930   7.381 -10.795  0.00  0.00    +0.000 HD
BRANCH  10  13
ATOM     13  C   UNL     1      -3.812   6.759 -11.646  0.00  0.00    +0.000 C 
ATOM     14  H   UNL     1      -3.582   5.905 -12.292  0.00  0.00    +0.000 HD
ATOM     15  H   UNL     1      -3.719   7.664 -12.257  0.00  0.00    +0.000 HD
BRANCH  13  16
ATOM     16  C   UNL     1      -5.242   6.633 -11.142  0.00  0.00    +0.000 C 
ATOM     17  H   UNL     1      -5.958   6.931 -11.915  0.00  0.00    +0.000 HD
ATOM     18  H   UNL     1      -5.395   7.277 -10.271  0.00  0.00    +0.000 HD
ATOM     19  H   UNL     1      -5.464   5.603 -10.845  0.00  0.00    +0.000 HD
ENDBRANCH  13  16
ENDBRANCH  10  13
ENDBRANCH   7  10
ENDBRANCH   4   7
ENDBRANCH   1   4
BRANCH   1  20
ATOM     20  C   UNL     1      -1.109  10.045 -10.307  0.00  0.00    +0.000 C 
ATOM     21  H   UNL     1      -0.829  10.933  -9.727  0.00  0.00    +0.000 HD
ATOM     22  H   UNL     1      -0.466   9.223  -9.969  0.00  0.00    +0.000 HD
BRANCH  20  23
ATOM     23  C   UNL     1      -0.866  10.310 -11.793  0.00  0.00    +0.000 C 
ATOM     24  H   UNL     1       0.186  10.113 -12.036  0.00  0.00    +0.000 HD
ATOM     25  H   UNL     1      -1.046  11.372 -12.007  0.00  0.00    +0.000 HD
BRANCH  23  26
ATOM     26  C   UNL     1      -1.769   9.447 -12.666  0.00  0.00    +0.000 C 
ATOM     27  H   UNL     1      -2.396   8.807 -12.036  0.00  0.00    +0.000 HD
ATOM     28  H   UNL     1      -2.411  10.082 -13.288  0.00  0.00    +0.000 HD
BRANCH  26  30
ATOM     29  O   UNL     1      -1.387   7.572 -14.136  0.00  0.00    +0.000 OA
ATOM     30  C   UNL     1      -0.949   8.569 -13.577  0.00  0.00    +0.000 C 
BRANCH  30  31
ATOM     31  O   UNL     1       0.316   9.066 -13.688  0.00  0.00    +0.000 OA
BRANCH  31  32
ATOM     32  C   UNL     1       0.783   9.266 -15.026  0.00  0.00    +0.000 C 
ATOM     33  H   UNL     1       0.277   8.563 -15.698  0.00  0.00    +0.000 HD
ATOM     34  H   UNL     1       1.864   9.094 -15.065  0.00  0.00    +0.000 HD
BRANCH  32  35
ATOM     35  C   UNL     1       0.476  10.687 -15.448  0.00  0.00    +0.000 C 
ATOM     36  H   UNL     1      -0.067  10.697 -16.400  0.00  0.00    +0.000 HD
ATOM     37  H   UNL     1      -0.167  11.178 -14.710  0.00  0.00    +0.000 HD
ATOM     38  H   UNL     1       1.394  11.270 -15.559  0.00  0.00    +0.000 HD
ENDBRANCH  32  35
ENDBRANCH  31  32
ENDBRANCH  30  31
ENDBRANCH  26  30
ENDBRANCH  23  26
ENDBRANCH  20  23
ENDBRANCH   1  20
TORSDOF 12
ENDMDL
MODEL 4
REMARK VINA RESULT:    -4.801     13.947     15.929
REMARK INTER + INTRA:          -8.590
REMARK INTER:                  -7.879
REMARK INTRA:                  -0.711
REMARK UNBOUND:                -0.702
REMARK  Name = 8048
REMARK  12 active torsions:
REMARK  status: ('A' for Active; 'I' for Inactive)
REMARK    1  A    between atoms: O_1  and  C_12
REMARK    2  A    between atoms: O_1  and  C_13
REMARK    3  A    between atoms: C_3  and  C_4
REMARK    4  A    between atoms: C_3  and  C_5
REMARK    5  A    between atoms: C_4  and  C_6
REMARK    6  A    between atoms: C_5  and  C_7
REMARK    7  A    between atoms: C_6  and  C_8
REMARK    8  A    between atoms: C_7  and  C_9
REMARK    9  A    between atoms: C_8  and  C_10
REMARK   10  A    between atoms: C_9  and  C_11
REMARK   11  A    between atoms: C_10  and  C_12
REMARK   12  A    between atoms: C_13  and  C_14
REMARK                            x       y       z     vdW  Elec       q    Type
REMARK                         _______ _______ _______ _____ _____    ______ ____
ROOT
ATOM      1  C   UNL     1      -8.793  11.569   6.583  0.00  0.00    +0.000 C 
ATOM      2  H   UNL     1      -9.887  11.642   6.557  0.00  0.00    +0.000 HD
ATOM      3  H   UNL     1      -8.400  12.592   6.547  0.00  0.00    +0.000 HD
ENDROOT
BRANCH   1   4
ATOM      4  C   UNL     1      -8.303  10.788   5.361  0.00  0.00    +0.000 C 
ATOM      5  H   UNL     1      -7.916   9.812   5.678  0.00  0.00    +0.000 HD
ATOM      6  H   UNL     1      -9.144  10.599   4.684  0.00  0.00    +0.000 HD
BRANCH   4   7
ATOM      7  C   UNL     1      -7.210  11.555   4.615  0.00  0.00    +0.000 C 
ATOM      8  H   UNL     1      -7.251  11.299   3.549  0.00  0.00    +0.000 HD
ATOM      9  H   UNL     1      -6.227  11.231   4.980  0.00  0.00    +0.000 HD
BRANCH   7  10
ATOM     10  C   UNL     1      -7.319  13.075   4.770  0.00  0.00    +0.000 C 
ATOM     11  H   UNL     1      -8.181  13.311   5.407  0.00  0.00    +0.000 HD
ATOM     12  H   UNL     1      -7.524  13.517   3.786  0.00  0.00    +0.000 HD
BRANCH  10  13
ATOM     13  C   UNL     1      -6.064  13.718   5.362  0.00  0.00    +0.000 C 
ATOM     14  H   UNL     1      -5.847  14.656   4.840  0.00  0.00    +0.000 HD
ATOM     15  H   UNL     1      -5.203  13.056   5.213  0.00  0.00    +0.000 HD
BRANCH  13  16
ATOM     16  C   UNL     1      -6.235  14.001   6.847  0.00  0.00    +0.000 C 
ATOM     17  H   UNL     1      -7.275  14.245   7.083  0.00  0.00    +0.000 HD
ATOM     18  H   UNL     1      -5.611  14.849   7.145  0.00  0.00    +0.000 HD
ATOM     19  H   UNL     1      -5.939  13.135   7.447  0.00  0.00    +0.000 HD
ENDBRANCH  13  16
ENDBRANCH  10  13
ENDBRANCH   7  10
ENDBRANCH   4   7
ENDBRANCH   1   4
BRANCH   1  20
ATOM     20  C   UNL     1      -8.358  10.897   7.886  0.00  0.00    +0.000 C 
ATOM     21  H   UNL     1      -7.262  10.840   7.924  0.00  0.00    +0.000 HD
ATOM     22  H   UNL     1      -8.679  11.508   8.737  0.00  0.00    +0.000 HD
BRANCH  20  23
ATOM     23  C   UNL     1      -8.945   9.491   8.010  0.00  0.00    +0.000 C 
ATOM     24  H   UNL     1      -9.175   9.098   7.012  0.00  0.00    +0.000 HD
ATOM     25  H   UNL     1      -9.895   9.542   8.558  0.00  0.00    +0.000 HD
BRANCH  23  26
ATOM     26  C   UNL     1      -7.985   8.550   8.728  0.00  0.00    +0.000 C 
ATOM     27  H   UNL     1      -8.451   7.567   8.855  0.00  0.00    +0.000 HD
ATOM     28  H   UNL     1      -7.061   8.440   8.149  0.00  0.00    +0.000 HD
BRANCH  26  30
ATOM     29  O   UNL     1      -6.498   9.443  10.406  0.00  0.00    +0.000 OA
ATOM     30  C   UNL     1      -7.627   9.090  10.089  0.00  0.00    +0.000 C 
BRANCH  30  31
ATOM     31  O   UNL     1      -8.738   9.140  10.878  0.00  0.00    +0.000 OA
BRANCH  31  32
ATOM     32  C   UNL     1      -9.324   7.875  11.196  0.00  0.00    +0.000 C 
ATOM     33  H   UNL     1      -8.756   7.402  12.005  0.00  0.00    +0.000 HD
ATOM     34  H   UNL     1      -9.304   7.229  10.312  0.00  0.00    +0.000 HD
BRANCH  32  35
ATOM     35  C   UNL     1     -10.757   8.092  11.638  0.00  0.00    +0.000 C 
ATOM     36  H   UNL     1     -10.845   7.981  12.724  0.00  0.00    +0.000 HD
ATOM     37  H   UNL     1     -11.086   9.107  11.394  0.00  0.00    +0.000 HD
ATOM     38  H   UNL     1     -11.428   7.378  11.154  0.00  0.00    +0.000 HD
ENDBRANCH  32  35
ENDBRANCH  31  32
ENDBRANCH  30  31
ENDBRANCH  26  30
ENDBRANCH  23  26
ENDBRANCH  20  23
ENDBRANCH   1  20
TORSDOF 12
ENDMDL
MODEL 5
REMARK VINA RESULT:    -4.704     28.015     29.200
REMARK INTER + INTRA:          -8.432
REMARK INTER:                  -7.568
REMARK INTRA:                  -0.864
REMARK UNBOUND:                -0.702
REMARK  Name = 8048
REMARK  12 active torsions:
REMARK  status: ('A' for Active; 'I' for Inactive)
REMARK    1  A    between atoms: O_1  and  C_12
REMARK    2  A    between atoms: O_1  and  C_13
REMARK    3  A    between atoms: C_3  and  C_4
REMARK    4  A    between atoms: C_3  and  C_5
REMARK    5  A    between atoms: C_4  and  C_6
REMARK    6  A    between atoms: C_5  and  C_7
REMARK    7  A    between atoms: C_6  and  C_8
REMARK    8  A    between atoms: C_7  and  C_9
REMARK    9  A    between atoms: C_8  and  C_10
REMARK   10  A    between atoms: C_9  and  C_11
REMARK   11  A    between atoms: C_10  and  C_12
REMARK   12  A    between atoms: C_13  and  C_14
REMARK                            x       y       z     vdW  Elec       q    Type
REMARK                         _______ _______ _______ _____ _____    ______ ____
ROOT
ATOM      1  C   UNL     1     -20.514  -3.167   5.658  0.00  0.00    +0.000 C 
ATOM      2  H   UNL     1     -21.106  -3.324   6.568  0.00  0.00    +0.000 HD
ATOM      3  H   UNL     1     -19.466  -3.070   5.967  0.00  0.00    +0.000 HD
ENDROOT
BRANCH   1   4
ATOM      4  C   UNL     1     -20.967  -1.879   4.968  0.00  0.00    +0.000 C 
ATOM      5  H   UNL     1     -20.519  -1.817   3.969  0.00  0.00    +0.000 HD
ATOM      6  H   UNL     1     -22.055  -1.897   4.833  0.00  0.00    +0.000 HD
BRANCH   4   7
ATOM      7  C   UNL     1     -20.575  -0.646   5.784  0.00  0.00    +0.000 C 
ATOM      8  H   UNL     1     -21.333   0.136   5.645  0.00  0.00    +0.000 HD
ATOM      9  H   UNL     1     -19.631  -0.242   5.398  0.00  0.00    +0.000 HD
BRANCH   7  10
ATOM     10  C   UNL     1     -20.417  -0.931   7.280  0.00  0.00    +0.000 C 
ATOM     11  H   UNL     1     -19.564  -0.359   7.667  0.00  0.00    +0.000 HD
ATOM     12  H   UNL     1     -20.172  -1.993   7.413  0.00  0.00    +0.000 HD
BRANCH  10  13
ATOM     13  C   UNL     1     -21.663  -0.593   8.099  0.00  0.00    +0.000 C 
ATOM     14  H   UNL     1     -22.378  -0.045   7.477  0.00  0.00    +0.000 HD
ATOM     15  H   UNL     1     -21.391   0.062   8.935  0.00  0.00    +0.000 HD
BRANCH  13  16
ATOM     16  C   UNL     1     -22.330  -1.850   8.637  0.00  0.00    +0.000 C 
ATOM     17  H   UNL     1     -21.941  -2.744   8.140  0.00  0.00    +0.000 HD
ATOM     18  H   UNL     1     -23.410  -1.808   8.465  0.00  0.00    +0.000 HD
ATOM     19  H   UNL     1     -22.162  -1.953   9.713  0.00  0.00    +0.000 HD
ENDBRANCH  13  16
ENDBRANCH  10  13
ENDBRANCH   7  10
ENDBRANCH   4   7
ENDBRANCH   1   4
BRANCH   1  20
ATOM     20  C   UNL     1     -20.667  -4.377   4.736  0.00  0.00    +0.000 C 
ATOM     21  H   UNL     1     -21.419  -5.063   5.148  0.00  0.00    +0.000 HD
ATOM     22  H   UNL     1     -21.034  -4.047   3.757  0.00  0.00    +0.000 HD
BRANCH  20  23
ATOM     23  C   UNL     1     -19.341  -5.119   4.565  0.00  0.00    +0.000 C 
ATOM     24  H   UNL     1     -19.190  -5.803   5.409  0.00  0.00    +0.000 HD
ATOM     25  H   UNL     1     -18.515  -4.397   4.591  0.00  0.00    +0.000 HD
BRANCH  23  26
ATOM     26  C   UNL     1     -19.306  -5.898   3.255  0.00  0.00    +0.000 C 
ATOM     27  H   UNL     1     -18.829  -6.871   3.413  0.00  0.00    +0.000 HD
ATOM     28  H   UNL     1     -20.325  -6.051   2.880  0.00  0.00    +0.000 HD
BRANCH  26  30
ATOM     29  O   UNL     1     -17.351  -4.827   2.333  0.00  0.00    +0.000 OA
ATOM     30  C   UNL     1     -18.526  -5.145   2.208  0.00  0.00    +0.000 C 
BRANCH  30  31
ATOM     31  O   UNL     1     -19.316  -4.903   1.123  0.00  0.00    +0.000 OA
BRANCH  31  32
ATOM     32  C   UNL     1     -19.331  -3.550   0.662  0.00  0.00    +0.000 C 
ATOM     33  H   UNL     1     -19.465  -3.536  -0.426  0.00  0.00    +0.000 HD
ATOM     34  H   UNL     1     -18.383  -3.065   0.918  0.00  0.00    +0.000 HD
BRANCH  32  35
ATOM     35  C   UNL     1     -20.476  -2.815   1.326  0.00  0.00    +0.000 C 
ATOM     36  H   UNL     1     -20.829  -3.366   2.205  0.00  0.00    +0.000 HD
ATOM     37  H   UNL     1     -20.150  -1.831   1.679  0.00  0.00    +0.000 HD
ATOM     38  H   UNL     1     -21.311  -2.682   0.634  0.00  0.00    +0.000 HD
ENDBRANCH  32  35
ENDBRANCH  31  32
ENDBRANCH  30  31
ENDBRANCH  26  30
ENDBRANCH  23  26
ENDBRANCH  20  23
ENDBRANCH   1  20
TORSDOF 12
ENDMDL
MODEL 6
REMARK VINA RESULT:    -4.644     14.044     15.667
REMARK INTER + INTRA:          -8.332
REMARK INTER:                  -7.630
REMARK INTRA:                  -0.703
REMARK UNBOUND:                -0.702
REMARK  Name = 8048
REMARK  12 active torsions:
REMARK  status: ('A' for Active; 'I' for Inactive)
REMARK    1  A    between atoms: O_1  and  C_12
REMARK    2  A    between atoms: O_1  and  C_13
REMARK    3  A    between atoms: C_3  and  C_4
REMARK    4  A    between atoms: C_3  and  C_5
REMARK    5  A    between atoms: C_4  and  C_6
REMARK    6  A    between atoms: C_5  and  C_7
REMARK    7  A    between atoms: C_6  and  C_8
REMARK    8  A    between atoms: C_7  and  C_9
REMARK    9  A    between atoms: C_8  and  C_10
REMARK   10  A    between atoms: C_9  and  C_11
REMARK   11  A    between atoms: C_10  and  C_12
REMARK   12  A    between atoms: C_13  and  C_14
REMARK                            x       y       z     vdW  Elec       q    Type
REMARK                         _______ _______ _______ _____ _____    ______ ____
ROOT
ATOM      1  C   UNL     1      -4.610   6.354  -8.788  0.00  0.00    +0.000 C 
ATOM      2  H   UNL     1      -5.019   7.009  -8.009  0.00  0.00    +0.000 HD
ATOM      3  H   UNL     1      -4.487   5.359  -8.343  0.00  0.00    +0.000 HD
ENDROOT
BRANCH   1   4
ATOM      4  C   UNL     1      -3.249   6.886  -9.242  0.00  0.00    +0.000 C 
ATOM      5  H   UNL     1      -3.129   7.924  -8.913  0.00  0.00    +0.000 HD
ATOM      6  H   UNL     1      -2.450   6.302  -8.770  0.00  0.00    +0.000 HD
BRANCH   4   7
ATOM      7  C   UNL     1      -3.104   6.809 -10.764  0.00  0.00    +0.000 C 
ATOM      8  H   UNL     1      -4.042   6.441 -11.198  0.00  0.00    +0.000 HD
ATOM      9  H   UNL     1      -2.329   6.074 -11.016  0.00  0.00    +0.000 HD
BRANCH   7  10
ATOM     10  C   UNL     1      -2.744   8.150 -11.409  0.00  0.00    +0.000 C 
ATOM     11  H   UNL     1      -3.451   8.360 -12.222  0.00  0.00    +0.000 HD
ATOM     12  H   UNL     1      -1.750   8.066 -11.868  0.00  0.00    +0.000 HD
BRANCH  10  13
ATOM     13  C   UNL     1      -2.748   9.320 -10.424  0.00  0.00    +0.000 C 
ATOM     14  H   UNL     1      -3.033   8.964  -9.427  0.00  0.00    +0.000 HD
ATOM     15  H   UNL     1      -3.494  10.061 -10.731  0.00  0.00    +0.000 HD
BRANCH  13  16
ATOM     16  C   UNL     1      -1.380   9.981 -10.345  0.00  0.00    +0.000 C 
ATOM     17  H   UNL     1      -1.217  10.648 -11.197  0.00  0.00    +0.000 HD
ATOM     18  H   UNL     1      -0.591   9.223 -10.351  0.00  0.00    +0.000 HD
ATOM     19  H   UNL     1      -1.280  10.566  -9.425  0.00  0.00    +0.000 HD
ENDBRANCH  13  16
ENDBRANCH  10  13
ENDBRANCH   7  10
ENDBRANCH   4   7
ENDBRANCH   1   4
BRANCH   1  20
ATOM     20  C   UNL     1      -5.595   6.275  -9.956  0.00  0.00    +0.000 C 
ATOM     21  H   UNL     1      -5.682   7.260 -10.433  0.00  0.00    +0.000 HD
ATOM     22  H   UNL     1      -5.209   5.583 -10.714  0.00  0.00    +0.000 HD
BRANCH  20  23
ATOM     23  C   UNL     1      -6.975   5.812  -9.490  0.00  0.00    +0.000 C 
ATOM     24  H   UNL     1      -7.443   5.203 -10.274  0.00  0.00    +0.000 HD
ATOM     25  H   UNL     1      -7.621   6.686  -9.340  0.00  0.00    +0.000 HD
BRANCH  23  26
ATOM     26  C   UNL     1      -6.884   5.010  -8.197  0.00  0.00    +0.000 C 
ATOM     27  H   UNL     1      -7.110   3.956  -8.395  0.00  0.00    +0.000 HD
ATOM     28  H   UNL     1      -5.876   5.090  -7.774  0.00  0.00    +0.000 HD
BRANCH  26  30
ATOM     29  O   UNL     1      -7.750   6.604  -6.606  0.00  0.00    +0.000 OA
ATOM     30  C   UNL     1      -7.866   5.528  -7.178  0.00  0.00    +0.000 C 
BRANCH  30  31
ATOM     31  O   UNL     1      -8.886   4.637  -7.019  0.00  0.00    +0.000 OA
BRANCH  31  32
ATOM     32  C   UNL     1      -8.547   3.429  -6.332  0.00  0.00    +0.000 C 
ATOM     33  H   UNL     1      -7.486   3.205  -6.489  0.00  0.00    +0.000 HD
ATOM     34  H   UNL     1      -9.155   2.605  -6.719  0.00  0.00    +0.000 HD
BRANCH  32  35
ATOM     35  C   UNL     1      -8.817   3.611  -4.853  0.00  0.00    +0.000 C 
ATOM     36  H   UNL     1      -8.239   2.890  -4.265  0.00  0.00    +0.000 HD
ATOM     37  H   UNL     1      -8.507   4.609  -4.525  0.00  0.00    +0.000 HD
ATOM     38  H   UNL     1      -9.878   3.480  -4.629  0.00  0.00    +0.000 HD
ENDBRANCH  32  35
ENDBRANCH  31  32
ENDBRANCH  30  31
ENDBRANCH  26  30
ENDBRANCH  23  26
ENDBRANCH  20  23
ENDBRANCH   1  20
TORSDOF 12
ENDMDL
MODEL 7
REMARK VINA RESULT:    -4.553     14.144     16.206
REMARK INTER + INTRA:          -8.183
REMARK INTER:                  -6.942
REMARK INTRA:                  -1.241
REMARK UNBOUND:                -0.702
REMARK  Name = 8048
REMARK  12 active torsions:
REMARK  status: ('A' for Active; 'I' for Inactive)
REMARK    1  A    between atoms: O_1  and  C_12
REMARK    2  A    between atoms: O_1  and  C_13
REMARK    3  A    between atoms: C_3  and  C_4
REMARK    4  A    between atoms: C_3  and  C_5
REMARK    5  A    between atoms: C_4  and  C_6
REMARK    6  A    between atoms: C_5  and  C_7
REMARK    7  A    between atoms: C_6  and  C_8
REMARK    8  A    between atoms: C_7  and  C_9
REMARK    9  A    between atoms: C_8  and  C_10
REMARK   10  A    between atoms: C_9  and  C_11
REMARK   11  A    between atoms: C_10  and  C_12
REMARK   12  A    between atoms: C_13  and  C_14
REMARK                            x       y       z     vdW  Elec       q    Type
REMARK                         _______ _______ _______ _____ _____    ______ ____
ROOT
ATOM      1  C   UNL     1      -2.425   9.750 -10.634  0.00  0.00    +0.000 C 
ATOM      2  H   UNL     1      -3.121  10.588 -10.767  0.00  0.00    +0.000 HD
ATOM      3  H   UNL     1      -2.817   8.908 -11.216  0.00  0.00    +0.000 HD
ENDROOT
BRANCH   1   4
ATOM      4  C   UNL     1      -2.362   9.367  -9.154  0.00  0.00    +0.000 C 
ATOM      5  H   UNL     1      -1.316   9.258  -8.844  0.00  0.00    +0.000 HD
ATOM      6  H   UNL     1      -2.797  10.171  -8.547  0.00  0.00    +0.000 HD
BRANCH   4   7
ATOM      7  C   UNL     1      -3.115   8.063  -8.887  0.00  0.00    +0.000 C 
ATOM      8  H   UNL     1      -4.172   8.288  -8.697  0.00  0.00    +0.000 HD
ATOM      9  H   UNL     1      -2.721   7.599  -7.973  0.00  0.00    +0.000 HD
BRANCH   7  10
ATOM     10  C   UNL     1      -3.014   7.056 -10.036  0.00  0.00    +0.000 C 
ATOM     11  H   UNL     1      -2.564   6.127  -9.663  0.00  0.00    +0.000 HD
ATOM     12  H   UNL     1      -2.331   7.454 -10.797  0.00  0.00    +0.000 HD
BRANCH  10  13
ATOM     13  C   UNL     1      -4.362   6.736 -10.684  0.00  0.00    +0.000 C 
ATOM     14  H   UNL     1      -5.141   7.376 -10.255  0.00  0.00    +0.000 HD
ATOM     15  H   UNL     1      -4.640   5.698 -10.471  0.00  0.00    +0.000 HD
BRANCH  13  16
ATOM     16  C   UNL     1      -4.316   6.949 -12.190  0.00  0.00    +0.000 C 
ATOM     17  H   UNL     1      -4.231   5.994 -12.718  0.00  0.00    +0.000 HD
ATOM     18  H   UNL     1      -3.452   7.564 -12.459  0.00  0.00    +0.000 HD
ATOM     19  H   UNL     1      -5.218   7.459 -12.542  0.00  0.00    +0.000 HD
ENDBRANCH  13  16
ENDBRANCH  10  13
ENDBRANCH   7  10
ENDBRANCH   4   7
ENDBRANCH   1   4
BRANCH   1  20
ATOM     20  C   UNL     1      -1.046  10.144 -11.167  0.00  0.00    +0.000 C 
ATOM     21  H   UNL     1      -1.154  10.933 -11.922  0.00  0.00    +0.000 HD
ATOM     22  H   UNL     1      -0.444  10.560 -10.350  0.00  0.00    +0.000 HD
BRANCH  20  23
ATOM     23  C   UNL     1      -0.324   8.946 -11.781  0.00  0.00    +0.000 C 
ATOM     24  H   UNL     1      -0.320   8.112 -11.068  0.00  0.00    +0.000 HD
ATOM     25  H   UNL     1       0.726   9.209 -11.966  0.00  0.00    +0.000 HD
BRANCH  23  26
ATOM     26  C   UNL     1      -0.982   8.509 -13.085  0.00  0.00    +0.000 C 
ATOM     27  H   UNL     1      -0.811   7.440 -13.249  0.00  0.00    +0.000 HD
ATOM     28  H   UNL     1      -2.061   8.700 -13.045  0.00  0.00    +0.000 HD
BRANCH  26  30
ATOM     29  O   UNL     1       0.785   9.333 -14.506  0.00  0.00    +0.000 OA
ATOM     30  C   UNL     1      -0.411   9.272 -14.253  0.00  0.00    +0.000 C 
BRANCH  30  31
ATOM     31  O   UNL     1      -1.418   9.846 -14.971  0.00  0.00    +0.000 OA
BRANCH  31  32
ATOM     32  C   UNL     1      -2.740   9.591 -14.490  0.00  0.00    +0.000 C 
ATOM     33  H   UNL     1      -2.685   9.048 -13.539  0.00  0.00    +0.000 HD
ATOM     34  H   UNL     1      -3.286   8.986 -15.223  0.00  0.00    +0.000 HD
BRANCH  32  35
ATOM     35  C   UNL     1      -3.454  10.910 -14.284  0.00  0.00    +0.000 C 
ATOM     36  H   UNL     1      -3.499  11.161 -13.219  0.00  0.00    +0.000 HD
ATOM     37  H   UNL     1      -2.912  11.723 -14.779  0.00  0.00    +0.000 HD
ATOM     38  H   UNL     1      -4.471  10.871 -14.681  0.00  0.00    +0.000 HD
ENDBRANCH  32  35
ENDBRANCH  31  32
ENDBRANCH  30  31
ENDBRANCH  26  30
ENDBRANCH  23  26
ENDBRANCH  20  23
ENDBRANCH   1  20
TORSDOF 12
ENDMDL
MODEL 8
REMARK VINA RESULT:    -4.537     13.788     15.891
REMARK INTER + INTRA:          -8.156
REMARK INTER:                  -7.277
REMARK INTRA:                  -0.879
REMARK UNBOUND:                -0.702
REMARK  Name = 8048
REMARK  12 active torsions:
REMARK  status: ('A' for Active; 'I' for Inactive)
REMARK    1  A    between atoms: O_1  and  C_12
REMARK    2  A    between atoms: O_1  and  C_13
REMARK    3  A    between atoms: C_3  and  C_4
REMARK    4  A    between atoms: C_3  and  C_5
REMARK    5  A    between atoms: C_4  and  C_6
REMARK    6  A    between atoms: C_5  and  C_7
REMARK    7  A    between atoms: C_6  and  C_8
REMARK    8  A    between atoms: C_7  and  C_9
REMARK    9  A    between atoms: C_8  and  C_10
REMARK   10  A    between atoms: C_9  and  C_11
REMARK   11  A    between atoms: C_10  and  C_12
REMARK   12  A    between atoms: C_13  and  C_14
REMARK                            x       y       z     vdW  Elec       q    Type
REMARK                         _______ _______ _______ _____ _____    ______ ____
ROOT
ATOM      1  C   UNL     1      -2.907   7.158  -9.621  0.00  0.00    +0.000 C 
ATOM      2  H   UNL     1      -2.247   7.315 -10.483  0.00  0.00    +0.000 HD
ATOM      3  H   UNL     1      -2.485   6.332  -9.036  0.00  0.00    +0.000 HD
ENDROOT
BRANCH   1   4
ATOM      4  C   UNL     1      -4.306   6.778 -10.110  0.00  0.00    +0.000 C 
ATOM      5  H   UNL     1      -4.477   5.708  -9.948  0.00  0.00    +0.000 HD
ATOM      6  H   UNL     1      -5.060   7.318  -9.525  0.00  0.00    +0.000 HD
BRANCH   4   7
ATOM      7  C   UNL     1      -4.482   7.108 -11.594  0.00  0.00    +0.000 C 
ATOM      8  H   UNL     1      -4.707   8.176 -11.703  0.00  0.00    +0.000 HD
ATOM      9  H   UNL     1      -5.350   6.561 -11.985  0.00  0.00    +0.000 HD
BRANCH   7  10
ATOM     10  C   UNL     1      -3.256   6.763 -12.444  0.00  0.00    +0.000 C 
ATOM     11  H   UNL     1      -2.916   5.751 -12.191  0.00  0.00    +0.000 HD
ATOM     12  H   UNL     1      -2.439   7.447 -12.179  0.00  0.00    +0.000 HD
BRANCH  10  13
ATOM     13  C   UNL     1      -3.517   6.844 -13.948  0.00  0.00    +0.000 C 
ATOM     14  H   UNL     1      -2.589   6.647 -14.496  0.00  0.00    +0.000 HD
ATOM     15  H   UNL     1      -3.842   7.857 -14.214  0.00  0.00    +0.000 HD
BRANCH  13  16
ATOM     16  C   UNL     1      -4.575   5.842 -14.382  0.00  0.00    +0.000 C 
ATOM     17  H   UNL     1      -5.318   6.313 -15.034  0.00  0.00    +0.000 HD
ATOM     18  H   UNL     1      -5.096   5.439 -13.508  0.00  0.00    +0.000 HD
ATOM     19  H   UNL     1      -4.123   5.004 -14.923  0.00  0.00    +0.000 HD
ENDBRANCH  13  16
ENDBRANCH  10  13
ENDBRANCH   7  10
ENDBRANCH   4   7
ENDBRANCH   1   4
BRANCH   1  20
ATOM     20  C   UNL     1      -2.940   8.427  -8.767  0.00  0.00    +0.000 C 
ATOM     21  H   UNL     1      -3.895   8.485  -8.229  0.00  0.00    +0.000 HD
ATOM     22  H   UNL     1      -2.147   8.381  -8.012  0.00  0.00    +0.000 HD
BRANCH  20  23
ATOM     23  C   UNL     1      -2.763   9.680  -9.625  0.00  0.00    +0.000 C 
ATOM     24  H   UNL     1      -3.002  10.570  -9.030  0.00  0.00    +0.000 HD
ATOM     25  H   UNL     1      -3.478   9.654 -10.458  0.00  0.00    +0.000 HD
BRANCH  23  26
ATOM     26  C   UNL     1      -1.342   9.785 -10.167  0.00  0.00    +0.000 C 
ATOM     27  H   UNL     1      -0.894  10.735  -9.857  0.00  0.00    +0.000 HD
ATOM     28  H   UNL     1      -0.732   8.957  -9.788  0.00  0.00    +0.000 HD
BRANCH  26  30
ATOM     29  O   UNL     1      -2.256  10.133 -12.372  0.00  0.00    +0.000 OA
ATOM     30  C   UNL     1      -1.340   9.722 -11.673  0.00  0.00    +0.000 C 
BRANCH  30  31
ATOM     31  O   UNL     1      -0.174   9.168 -12.114  0.00  0.00    +0.000 OA
BRANCH  31  32
ATOM     32  C   UNL     1      -0.208   8.640 -13.443  0.00  0.00    +0.000 C 
ATOM     33  H   UNL     1      -1.247   8.576 -13.784  0.00  0.00    +0.000 HD
ATOM     34  H   UNL     1       0.240   7.640 -13.451  0.00  0.00    +0.000 HD
BRANCH  32  35
ATOM     35  C   UNL     1       0.575   9.558 -14.358  0.00  0.00    +0.000 C 
ATOM     36  H   UNL     1      -0.024  10.435 -14.628  0.00  0.00    +0.000 HD
ATOM     37  H   UNL     1       1.474   9.929 -13.855  0.00  0.00    +0.000 HD
ATOM     38  H   UNL     1       0.872   9.039 -15.273  0.00  0.00    +0.000 HD
ENDBRANCH  32  35
ENDBRANCH  31  32
ENDBRANCH  30  31
ENDBRANCH  26  30
ENDBRANCH  23  26
ENDBRANCH  20  23
ENDBRANCH   1  20
TORSDOF 12
ENDMDL
MODEL 9
REMARK VINA RESULT:    -4.425     14.306     16.028
REMARK INTER + INTRA:          -7.973
REMARK INTER:                  -7.118
REMARK INTRA:                  -0.854
REMARK UNBOUND:                -0.702
REMARK  Name = 8048
REMARK  12 active torsions:
REMARK  status: ('A' for Active; 'I' for Inactive)
REMARK    1  A    between atoms: O_1  and  C_12
REMARK    2  A    between atoms: O_1  and  C_13
REMARK    3  A    between atoms: C_3  and  C_4
REMARK    4  A    between atoms: C_3  and  C_5
REMARK    5  A    between atoms: C_4  and  C_6
REMARK    6  A    between atoms: C_5  and  C_7
REMARK    7  A    between atoms: C_6  and  C_8
REMARK    8  A    between atoms: C_7  and  C_9
REMARK    9  A    between atoms: C_8  and  C_10
REMARK   10  A    between atoms: C_9  and  C_11
REMARK   11  A    between atoms: C_10  and  C_12
REMARK   12  A    between atoms: C_13  and  C_14
REMARK                            x       y       z     vdW  Elec       q    Type
REMARK                         _______ _______ _______ _____ _____    ______ ____
ROOT
ATOM      1  C   UNL     1      -7.012  12.665   9.320  0.00  0.00    +0.000 C 
ATOM      2  H   UNL     1      -7.744  11.956   8.912  0.00  0.00    +0.000 HD
ATOM      3  H   UNL     1      -7.552  13.330  10.004  0.00  0.00    +0.000 HD
ENDROOT
BRANCH   1   4
ATOM      4  C   UNL     1      -6.402  13.484   8.180  0.00  0.00    +0.000 C 
ATOM      5  H   UNL     1      -6.660  14.542   8.307  0.00  0.00    +0.000 HD
ATOM      6  H   UNL     1      -5.309  13.410   8.217  0.00  0.00    +0.000 HD
BRANCH   4   7
ATOM      7  C   UNL     1      -6.900  12.994   6.819  0.00  0.00    +0.000 C 
ATOM      8  H   UNL     1      -6.088  12.462   6.307  0.00  0.00    +0.000 HD
ATOM      9  H   UNL     1      -7.154  13.860   6.194  0.00  0.00    +0.000 HD
BRANCH   7  10
ATOM     10  C   UNL     1      -8.122  12.076   6.912  0.00  0.00    +0.000 C 
ATOM     11  H   UNL     1      -9.034  12.682   6.844  0.00  0.00    +0.000 HD
ATOM     12  H   UNL     1      -8.132  11.599   7.901  0.00  0.00    +0.000 HD
BRANCH  10  13
ATOM     13  C   UNL     1      -8.155  10.995   5.830  0.00  0.00    +0.000 C 
ATOM     14  H   UNL     1      -9.193  10.771   5.561  0.00  0.00    +0.000 HD
ATOM     15  H   UNL     1      -7.712  10.070   6.216  0.00  0.00    +0.000 HD
BRANCH  13  16
ATOM     16  C   UNL     1      -7.402  11.436   4.584  0.00  0.00    +0.000 C 
ATOM     17  H   UNL     1      -6.980  12.438   4.714  0.00  0.00    +0.000 HD
ATOM     18  H   UNL     1      -8.077  11.462   3.723  0.00  0.00    +0.000 HD
ATOM     19  H   UNL     1      -6.585  10.745   4.354  0.00  0.00    +0.000 HD
ENDBRANCH  13  16
ENDBRANCH  10  13
ENDBRANCH   7  10
ENDBRANCH   4   7
ENDBRANCH   1   4
BRANCH   1  20
ATOM     20  C   UNL     1      -5.937  11.898  10.092  0.00  0.00    +0.000 C 
ATOM     21  H   UNL     1      -4.959  12.059   9.621  0.00  0.00    +0.000 HD
ATOM     22  H   UNL     1      -5.871  12.290  11.114  0.00  0.00    +0.000 HD
BRANCH  20  23
ATOM     23  C   UNL     1      -6.242  10.401  10.133  0.00  0.00    +0.000 C 
ATOM     24  H   UNL     1      -5.776   9.954  11.021  0.00  0.00    +0.000 HD
ATOM     25  H   UNL     1      -5.789   9.914   9.259  0.00  0.00    +0.000 HD
BRANCH  23  26
ATOM     26  C   UNL     1      -7.743  10.140  10.150  0.00  0.00    +0.000 C 
ATOM     27  H   UNL     1      -8.139  10.303  11.158  0.00  0.00    +0.000 HD
ATOM     28  H   UNL     1      -8.251  10.814   9.450  0.00  0.00    +0.000 HD
BRANCH  26  30
ATOM     29  O   UNL     1      -7.744   8.251   8.649  0.00  0.00    +0.000 OA
ATOM     30  C   UNL     1      -8.043   8.721   9.739  0.00  0.00    +0.000 C 
BRANCH  30  31
ATOM     31  O   UNL     1      -8.662   8.062  10.760  0.00  0.00    +0.000 OA
BRANCH  31  32
ATOM     32  C   UNL     1      -9.708   8.785  11.414  0.00  0.00    +0.000 C 
ATOM     33  H   UNL     1      -9.959   9.677  10.827  0.00  0.00    +0.000 HD
ATOM     34  H   UNL     1      -9.375   9.089  12.412  0.00  0.00    +0.000 HD
BRANCH  32  35
ATOM     35  C   UNL     1     -10.927   7.893  11.532  0.00  0.00    +0.000 C 
ATOM     36  H   UNL     1     -11.805   8.382  11.097  0.00  0.00    +0.000 HD
ATOM     37  H   UNL     1     -10.776   6.961  10.978  0.00  0.00    +0.000 HD
ATOM     38  H   UNL     1     -11.136   7.653  12.577  0.00  0.00    +0.000 HD
ENDBRANCH  32  35
ENDBRANCH  31  32
ENDBRANCH  30  31
ENDBRANCH  26  30
ENDBRANCH  23  26
ENDBRANCH  20  23
ENDBRANCH   1  20
TORSDOF 12
ENDMDL
MODEL 10
REMARK VINA RESULT:    -4.268     14.358     16.549
REMARK INTER + INTRA:          -7.715
REMARK INTER:                  -7.013
REMARK INTRA:                  -0.702
REMARK UNBOUND:                -0.702
REMARK  Name = 8048
REMARK  12 active torsions:
REMARK  status: ('A' for Active; 'I' for Inactive)
REMARK    1  A    between atoms: O_1  and  C_12
REMARK    2  A    between atoms: O_1  and  C_13
REMARK    3  A    between atoms: C_3  and  C_4
REMARK    4  A    between atoms: C_3  and  C_5
REMARK    5  A    between atoms: C_4  and  C_6
REMARK    6  A    between atoms: C_5  and  C_7
REMARK    7  A    between atoms: C_6  and  C_8
REMARK    8  A    between atoms: C_7  and  C_9
REMARK    9  A    between atoms: C_8  and  C_10
REMARK   10  A    between atoms: C_9  and  C_11
REMARK   11  A    between atoms: C_10  and  C_12
REMARK   12  A    between atoms: C_13  and  C_14
REMARK                            x       y       z     vdW  Elec       q    Type
REMARK                         _______ _______ _______ _____ _____    ______ ____
ROOT
ATOM      1  C   UNL     1      -0.916   9.684 -11.666  0.00  0.00    +0.000 C 
ATOM      2  H   UNL     1      -0.596   8.635 -11.659  0.00  0.00    +0.000 HD
ATOM      3  H   UNL     1      -0.070  10.278 -12.032  0.00  0.00    +0.000 HD
ENDROOT
BRANCH   1   4
ATOM      4  C   UNL     1      -1.274  10.121 -10.244  0.00  0.00    +0.000 C 
ATOM      5  H   UNL     1      -0.586   9.653  -9.530  0.00  0.00    +0.000 HD
ATOM      6  H   UNL     1      -1.150  11.206 -10.150  0.00  0.00    +0.000 HD
BRANCH   4   7
ATOM      7  C   UNL     1      -2.714   9.741  -9.893  0.00  0.00    +0.000 C 
ATOM      8  H   UNL     1      -3.231   9.409 -10.802  0.00  0.00    +0.000 HD
ATOM      9  H   UNL     1      -3.245  10.631  -9.534  0.00  0.00    +0.000 HD
BRANCH   7  10
ATOM     10  C   UNL     1      -2.812   8.643  -8.830  0.00  0.00    +0.000 C 
ATOM     11  H   UNL     1      -3.336   9.038  -7.951  0.00  0.00    +0.000 HD
ATOM     12  H   UNL     1      -1.799   8.378  -8.501  0.00  0.00    +0.000 HD
BRANCH  10  13
ATOM     13  C   UNL     1      -3.529   7.384  -9.320  0.00  0.00    +0.000 C 
ATOM     14  H   UNL     1      -4.536   7.643  -9.667  0.00  0.00    +0.000 HD
ATOM     15  H   UNL     1      -3.643   6.676  -8.491  0.00  0.00    +0.000 HD
BRANCH  13  16
ATOM     16  C   UNL     1      -2.767   6.718 -10.455  0.00  0.00    +0.000 C 
ATOM     17  H   UNL     1      -2.052   7.412 -10.908  0.00  0.00    +0.000 HD
ATOM     18  H   UNL     1      -3.460   6.387 -11.234  0.00  0.00    +0.000 HD
ATOM     19  H   UNL     1      -2.217   5.842 -10.097  0.00  0.00    +0.000 HD
ENDBRANCH  13  16
ENDBRANCH  10  13
ENDBRANCH   7  10
ENDBRANCH   4   7
ENDBRANCH   1   4
BRANCH   1  20
ATOM     20  C   UNL     1      -2.106   9.847 -12.614  0.00  0.00    +0.000 C 
ATOM     21  H   UNL     1      -2.725   8.941 -12.588  0.00  0.00    +0.000 HD
ATOM     22  H   UNL     1      -2.735  10.677 -12.273  0.00  0.00    +0.000 HD
BRANCH  20  23
ATOM     23  C   UNL     1      -1.644  10.106 -14.048  0.00  0.00    +0.000 C 
ATOM     24  H   UNL     1      -2.515  10.294 -14.688  0.00  0.00    +0.000 HD
ATOM     25  H   UNL     1      -1.151   9.207 -14.440  0.00  0.00    +0.000 HD
BRANCH  23  26
ATOM     26  C   UNL     1      -0.686  11.290 -14.117  0.00  0.00    +0.000 C 
ATOM     27  H   UNL     1      -1.130  12.159 -13.618  0.00  0.00    +0.000 HD
ATOM     28  H   UNL     1       0.261  11.038 -13.627  0.00  0.00    +0.000 HD
BRANCH  26  30
ATOM     29  O   UNL     1      -1.222  11.597 -16.449  0.00  0.00    +0.000 OA
ATOM     30  C   UNL     1      -0.394  11.657 -15.549  0.00  0.00    +0.000 C 
BRANCH  30  31
ATOM     31  O   UNL     1       0.898  12.076 -15.668  0.00  0.00    +0.000 OA
BRANCH  31  32
ATOM     32  C   UNL     1       1.294  13.115 -14.769  0.00  0.00    +0.000 C 
ATOM     33  H   UNL     1       0.876  12.918 -13.776  0.00  0.00    +0.000 HD
ATOM     34  H   UNL     1       0.922  14.078 -15.136  0.00  0.00    +0.000 HD
BRANCH  32  35
ATOM     35  C   UNL     1       2.806  13.149 -14.689  0.00  0.00    +0.000 C 
ATOM     36  H   UNL     1       3.134  13.286 -13.653  0.00  0.00    +0.000 HD
ATOM     37  H   UNL     1       3.232  12.201 -15.034  0.00  0.00    +0.000 HD
ATOM     38  H   UNL     1       3.213  13.960 -15.298  0.00  0.00    +0.000 HD
ENDBRANCH  32  35
ENDBRANCH  31  32
ENDBRANCH  30  31
ENDBRANCH  26  30
ENDBRANCH  23  26
ENDBRANCH  20  23
ENDBRANCH   1  20
TORSDOF 12
ENDMDL
