MODEL 1
REMARK VINA RESULT:    -3.834      0.000      0.000
REMARK INTER + INTRA:          -5.107
REMARK INTER:                  -4.825
REMARK INTRA:                  -0.282
REMARK UNBOUND:                -0.152
REMARK  Name = 7762
REMARK  6 active torsions:
REMARK  status: ('A' for Active; 'I' for Inactive)
REMARK    1  A    between atoms: O_1  and  C_6
REMARK    2  A    between atoms: O_1  and  C_7
REMARK    3  A    between atoms: C_3  and  C_4
REMARK    4  A    between atoms: C_3  and  C_5
REMARK    5  A    between atoms: C_4  and  C_6
REMARK    6  A    between atoms: C_7  and  C_8
REMARK                            x       y       z     vdW  Elec       q    Type
REMARK                         _______ _______ _______ _____ _____    ______ ____
ROOT
ATOM      1  C   UNL     1      -2.710   8.716  -8.836  0.00  0.00    +0.000 C 
ATOM      2  H   UNL     1      -1.712   8.451  -8.468  0.00  0.00    +0.000 HD
ATOM      3  H   UNL     1      -3.263   9.222  -8.036  0.00  0.00    +0.000 HD
ENDROOT
BRANCH   1   4
ATOM      4  C   UNL     1      -3.457   7.452  -9.256  0.00  0.00    +0.000 C 
ATOM      5  H   UNL     1      -3.547   6.771  -8.401  0.00  0.00    +0.000 HD
ATOM      6  H   UNL     1      -4.478   7.706  -9.566  0.00  0.00    +0.000 HD
BRANCH   4   7
ATOM      7  C   UNL     1      -2.752   6.739 -10.397  0.00  0.00    +0.000 C 
ATOM      8  H   UNL     1      -1.980   7.384 -10.828  0.00  0.00    +0.000 HD
ATOM      9  H   UNL     1      -2.271   5.819 -10.049  0.00  0.00    +0.000 HD
ATOM     10  H   UNL     1      -3.459   6.477 -11.192  0.00  0.00    +0.000 HD
ENDBRANCH   4   7
ENDBRANCH   1   4
BRANCH   1  12
ATOM     11  O   UNL     1      -3.462  10.209 -10.601  0.00  0.00    +0.000 OA
ATOM     12  C   UNL     1      -2.546   9.685  -9.985  0.00  0.00    +0.000 C 
BRANCH  12  13
ATOM     13  O   UNL     1      -1.212   9.876 -10.214  0.00  0.00    +0.000 OA
BRANCH  13  14
ATOM     14  C   UNL     1      -0.854  10.150 -11.572  0.00  0.00    +0.000 C 
ATOM     15  H   UNL     1      -1.734  10.507 -12.118  0.00  0.00    +0.000 HD
ATOM     16  H   UNL     1      -0.075  10.920 -11.596  0.00  0.00    +0.000 HD
BRANCH  14  17
ATOM     17  C   UNL     1      -0.336   8.879 -12.211  0.00  0.00    +0.000 C 
ATOM     18  H   UNL     1       0.391   9.104 -12.995  0.00  0.00    +0.000 HD
ATOM     19  H   UNL     1       0.140   8.238 -11.461  0.00  0.00    +0.000 HD
ATOM     20  H   UNL     1      -1.160   8.303 -12.645  0.00  0.00    +0.000 HD
ENDBRANCH  14  17
ENDBRANCH  13  14
ENDBRANCH  12  13
ENDBRANCH   1  12
TORSDOF 6
ENDMDL
MODEL 2
REMARK VINA RESULT:    -3.674      1.907      2.881
REMARK INTER + INTRA:          -4.900
REMARK INTER:                  -4.673
REMARK INTRA:                  -0.227
REMARK UNBOUND:                -0.152
REMARK  Name = 7762
REMARK  6 active torsions:
REMARK  status: ('A' for Active; 'I' for Inactive)
REMARK    1  A    between atoms: O_1  and  C_6
REMARK    2  A    between atoms: O_1  and  C_7
REMARK    3  A    between atoms: C_3  and  C_4
REMARK    4  A    between atoms: C_3  and  C_5
REMARK    5  A    between atoms: C_4  and  C_6
REMARK    6  A    between atoms: C_7  and  C_8
REMARK                            x       y       z     vdW  Elec       q    Type
REMARK                         _______ _______ _______ _____ _____    ______ ____
ROOT
ATOM      1  C   UNL     1      -3.081   6.738 -11.173  0.00  0.00    +0.000 C 
ATOM      2  H   UNL     1      -3.423   5.702 -11.061  0.00  0.00    +0.000 HD
ATOM      3  H   UNL     1      -3.756   7.264 -11.859  0.00  0.00    +0.000 HD
ENDROOT
BRANCH   1   4
ATOM      4  C   UNL     1      -1.662   6.754 -11.738  0.00  0.00    +0.000 C 
ATOM      5  H   UNL     1      -1.027   7.412 -11.132  0.00  0.00    +0.000 HD
ATOM      6  H   UNL     1      -1.224   5.750 -11.678  0.00  0.00    +0.000 HD
BRANCH   4   7
ATOM      7  C   UNL     1      -1.641   7.223 -13.183  0.00  0.00    +0.000 C 
ATOM      8  H   UNL     1      -2.267   6.573 -13.802  0.00  0.00    +0.000 HD
ATOM      9  H   UNL     1      -2.024   8.245 -13.270  0.00  0.00    +0.000 HD
ATOM     10  H   UNL     1      -0.624   7.202 -13.587  0.00  0.00    +0.000 HD
ENDBRANCH   4   7
ENDBRANCH   1   4
BRANCH   1  12
ATOM     11  O   UNL     1      -3.225   6.824  -8.748  0.00  0.00    +0.000 OA
ATOM     12  C   UNL     1      -3.161   7.408  -9.821  0.00  0.00    +0.000 C 
BRANCH  12  13
ATOM     13  O   UNL     1      -3.148   8.763  -9.997  0.00  0.00    +0.000 OA
BRANCH  13  14
ATOM     14  C   UNL     1      -2.065   9.455  -9.366  0.00  0.00    +0.000 C 
ATOM     15  H   UNL     1      -2.463  10.223  -8.695  0.00  0.00    +0.000 HD
ATOM     16  H   UNL     1      -1.465   8.743  -8.788  0.00  0.00    +0.000 HD
BRANCH  14  17
ATOM     17  C   UNL     1      -1.206  10.101 -10.432  0.00  0.00    +0.000 C 
ATOM     18  H   UNL     1      -1.223   9.516 -11.355  0.00  0.00    +0.000 HD
ATOM     19  H   UNL     1      -1.558  11.115 -10.648  0.00  0.00    +0.000 HD
ATOM     20  H   UNL     1      -0.169  10.191 -10.089  0.00  0.00    +0.000 HD
ENDBRANCH  14  17
ENDBRANCH  13  14
ENDBRANCH  12  13
ENDBRANCH   1  12
TORSDOF 6
ENDMDL
MODEL 3
REMARK VINA RESULT:    -3.634      1.977      2.734
REMARK INTER + INTRA:          -4.848
REMARK INTER:                  -4.498
REMARK INTRA:                  -0.350
REMARK UNBOUND:                -0.152
REMARK  Name = 7762
REMARK  6 active torsions:
REMARK  status: ('A' for Active; 'I' for Inactive)
REMARK    1  A    between atoms: O_1  and  C_6
REMARK    2  A    between atoms: O_1  and  C_7
REMARK    3  A    between atoms: C_3  and  C_4
REMARK    4  A    between atoms: C_3  and  C_5
REMARK    5  A    between atoms: C_4  and  C_6
REMARK    6  A    between atoms: C_7  and  C_8
REMARK                            x       y       z     vdW  Elec       q    Type
REMARK                         _______ _______ _______ _____ _____    ______ ____
ROOT
ATOM      1  C   UNL     1      -3.151   7.614  -9.192  0.00  0.00    +0.000 C 
ATOM      2  H   UNL     1      -4.184   7.791  -8.869  0.00  0.00    +0.000 HD
ATOM      3  H   UNL     1      -2.673   6.919  -8.492  0.00  0.00    +0.000 HD
ENDROOT
BRANCH   1   4
ATOM      4  C   UNL     1      -2.384   8.934  -9.209  0.00  0.00    +0.000 C 
ATOM      5  H   UNL     1      -2.374   9.372  -8.204  0.00  0.00    +0.000 HD
ATOM      6  H   UNL     1      -1.337   8.754  -9.485  0.00  0.00    +0.000 HD
BRANCH   4   7
ATOM      7  C   UNL     1      -2.995   9.923 -10.186  0.00  0.00    +0.000 C 
ATOM      8  H   UNL     1      -3.055   9.482 -11.185  0.00  0.00    +0.000 HD
ATOM      9  H   UNL     1      -4.007  10.206  -9.878  0.00  0.00    +0.000 HD
ATOM     10  H   UNL     1      -2.389  10.833 -10.252  0.00  0.00    +0.000 HD
ENDBRANCH   4   7
ENDBRANCH   1   4
BRANCH   1  12
ATOM     11  O   UNL     1      -4.206   6.742 -11.202  0.00  0.00    +0.000 OA
ATOM     12  C   UNL     1      -3.191   6.963 -10.555  0.00  0.00    +0.000 C 
BRANCH  12  13
ATOM     13  O   UNL     1      -1.914   6.669 -10.942  0.00  0.00    +0.000 OA
BRANCH  13  14
ATOM     14  C   UNL     1      -1.610   6.934 -12.315  0.00  0.00    +0.000 C 
ATOM     15  H   UNL     1      -1.223   6.024 -12.787  0.00  0.00    +0.000 HD
ATOM     16  H   UNL     1      -2.520   7.254 -12.835  0.00  0.00    +0.000 HD
BRANCH  14  17
ATOM     17  C   UNL     1      -0.568   8.030 -12.386  0.00  0.00    +0.000 C 
ATOM     18  H   UNL     1      -0.507   8.446 -13.395  0.00  0.00    +0.000 HD
ATOM     19  H   UNL     1      -0.807   8.835 -11.684  0.00  0.00    +0.000 HD
ATOM     20  H   UNL     1       0.417   7.643 -12.103  0.00  0.00    +0.000 HD
ENDBRANCH  14  17
ENDBRANCH  13  14
ENDBRANCH  12  13
ENDBRANCH   1  12
TORSDOF 6
ENDMDL
MODEL 4
REMARK VINA RESULT:    -3.606     12.935     13.763
REMARK INTER + INTRA:          -4.812
REMARK INTER:                  -4.492
REMARK INTRA:                  -0.320
REMARK UNBOUND:                -0.152
REMARK  Name = 7762
REMARK  6 active torsions:
REMARK  status: ('A' for Active; 'I' for Inactive)
REMARK    1  A    between atoms: O_1  and  C_6
REMARK    2  A    between atoms: O_1  and  C_7
REMARK    3  A    between atoms: C_3  and  C_4
REMARK    4  A    between atoms: C_3  and  C_5
REMARK    5  A    between atoms: C_4  and  C_6
REMARK    6  A    between atoms: C_7  and  C_8
REMARK                            x       y       z     vdW  Elec       q    Type
REMARK                         _______ _______ _______ _____ _____    ______ ____
ROOT
ATOM      1  C   UNL     1       4.733   8.687   2.131  0.00  0.00    +0.000 C 
ATOM      2  H   UNL     1       4.888   9.052   3.153  0.00  0.00    +0.000 HD
ATOM      3  H   UNL     1       4.037   7.840   2.156  0.00  0.00    +0.000 HD
ENDROOT
BRANCH   1   4
ATOM      4  C   UNL     1       6.066   8.237   1.537  0.00  0.00    +0.000 C 
ATOM      5  H   UNL     1       6.093   7.144   1.468  0.00  0.00    +0.000 HD
ATOM      6  H   UNL     1       6.168   8.620   0.514  0.00  0.00    +0.000 HD
BRANCH   4   7
ATOM      7  C   UNL     1       7.240   8.721   2.370  0.00  0.00    +0.000 C 
ATOM      8  H   UNL     1       7.890   7.880   2.634  0.00  0.00    +0.000 HD
ATOM      9  H   UNL     1       7.840   9.452   1.817  0.00  0.00    +0.000 HD
ATOM     10  H   UNL     1       6.896   9.190   3.297  0.00  0.00    +0.000 HD
ENDBRANCH   4   7
ENDBRANCH   1   4
BRANCH   1  12
ATOM     11  O   UNL     1       3.207  10.536   1.723  0.00  0.00    +0.000 OA
ATOM     12  C   UNL     1       4.099   9.798   1.326  0.00  0.00    +0.000 C 
BRANCH  12  13
ATOM     13  O   UNL     1       4.687   9.842   0.093  0.00  0.00    +0.000 OA
BRANCH  13  14
ATOM     14  C   UNL     1       4.864  11.152  -0.458  0.00  0.00    +0.000 C 
ATOM     15  H   UNL     1       4.783  11.103  -1.549  0.00  0.00    +0.000 HD
ATOM     16  H   UNL     1       4.090  11.820  -0.065  0.00  0.00    +0.000 HD
BRANCH  14  17
ATOM     17  C   UNL     1       6.232  11.670  -0.068  0.00  0.00    +0.000 C 
ATOM     18  H   UNL     1       6.338  11.712   1.018  0.00  0.00    +0.000 HD
ATOM     19  H   UNL     1       7.018  11.025  -0.476  0.00  0.00    +0.000 HD
ATOM     20  H   UNL     1       6.396  12.671  -0.480  0.00  0.00    +0.000 HD
ENDBRANCH  14  17
ENDBRANCH  13  14
ENDBRANCH  12  13
ENDBRANCH   1  12
TORSDOF 6
ENDMDL
MODEL 5
REMARK VINA RESULT:    -3.566      1.916      2.657
REMARK INTER + INTRA:          -4.761
REMARK INTER:                  -4.545
REMARK INTRA:                  -0.216
REMARK UNBOUND:                -0.152
REMARK  Name = 7762
REMARK  6 active torsions:
REMARK  status: ('A' for Active; 'I' for Inactive)
REMARK    1  A    between atoms: O_1  and  C_6
REMARK    2  A    between atoms: O_1  and  C_7
REMARK    3  A    between atoms: C_3  and  C_4
REMARK    4  A    between atoms: C_3  and  C_5
REMARK    5  A    between atoms: C_4  and  C_6
REMARK    6  A    between atoms: C_7  and  C_8
REMARK                            x       y       z     vdW  Elec       q    Type
REMARK                         _______ _______ _______ _____ _____    ______ ____
ROOT
ATOM      1  C   UNL     1      -3.441   6.847 -11.106  0.00  0.00    +0.000 C 
ATOM      2  H   UNL     1      -4.297   7.502 -11.306  0.00  0.00    +0.000 HD
ATOM      3  H   UNL     1      -3.681   5.833 -11.446  0.00  0.00    +0.000 HD
ENDROOT
BRANCH   1   4
ATOM      4  C   UNL     1      -3.144   6.829  -9.608  0.00  0.00    +0.000 C 
ATOM      5  H   UNL     1      -2.341   6.113  -9.396  0.00  0.00    +0.000 HD
ATOM      6  H   UNL     1      -2.784   7.813  -9.286  0.00  0.00    +0.000 HD
BRANCH   4   7
ATOM      7  C   UNL     1      -4.376   6.460  -8.799  0.00  0.00    +0.000 C 
ATOM      8  H   UNL     1      -4.089   6.164  -7.785  0.00  0.00    +0.000 HD
ATOM      9  H   UNL     1      -5.065   7.308  -8.723  0.00  0.00    +0.000 HD
ATOM     10  H   UNL     1      -4.911   5.623  -9.259  0.00  0.00    +0.000 HD
ENDBRANCH   4   7
ENDBRANCH   1   4
BRANCH   1  12
ATOM     11  O   UNL     1      -1.385   6.650 -12.388  0.00  0.00    +0.000 OA
ATOM     12  C   UNL     1      -2.266   7.352 -11.911  0.00  0.00    +0.000 C 
BRANCH  12  13
ATOM     13  O   UNL     1      -2.355   8.711 -12.019  0.00  0.00    +0.000 OA
BRANCH  13  14
ATOM     14  C   UNL     1      -1.141   9.429 -11.770  0.00  0.00    +0.000 C 
ATOM     15  H   UNL     1      -0.292   8.739 -11.821  0.00  0.00    +0.000 HD
ATOM     16  H   UNL     1      -1.020  10.213 -12.525  0.00  0.00    +0.000 HD
BRANCH  14  17
ATOM     17  C   UNL     1      -1.212  10.052 -10.392  0.00  0.00    +0.000 C 
ATOM     18  H   UNL     1      -2.124  10.642 -10.277  0.00  0.00    +0.000 HD
ATOM     19  H   UNL     1      -1.191   9.278  -9.618  0.00  0.00    +0.000 HD
ATOM     20  H   UNL     1      -0.346  10.699 -10.217  0.00  0.00    +0.000 HD
ENDBRANCH  14  17
ENDBRANCH  13  14
ENDBRANCH  12  13
ENDBRANCH   1  12
TORSDOF 6
ENDMDL
MODEL 6
REMARK VINA RESULT:    -3.533      1.748      2.764
REMARK INTER + INTRA:          -4.717
REMARK INTER:                  -4.461
REMARK INTRA:                  -0.256
REMARK UNBOUND:                -0.152
REMARK  Name = 7762
REMARK  6 active torsions:
REMARK  status: ('A' for Active; 'I' for Inactive)
REMARK    1  A    between atoms: O_1  and  C_6
REMARK    2  A    between atoms: O_1  and  C_7
REMARK    3  A    between atoms: C_3  and  C_4
REMARK    4  A    between atoms: C_3  and  C_5
REMARK    5  A    between atoms: C_4  and  C_6
REMARK    6  A    between atoms: C_7  and  C_8
REMARK                            x       y       z     vdW  Elec       q    Type
REMARK                         _______ _______ _______ _____ _____    ______ ____
ROOT
ATOM      1  C   UNL     1      -1.136  10.155 -10.447  0.00  0.00    +0.000 C 
ATOM      2  H   UNL     1      -0.495   9.540  -9.805  0.00  0.00    +0.000 HD
ATOM      3  H   UNL     1      -0.898  11.213 -10.280  0.00  0.00    +0.000 HD
ENDROOT
BRANCH   1   4
ATOM      4  C   UNL     1      -2.603   9.900 -10.107  0.00  0.00    +0.000 C 
ATOM      5  H   UNL     1      -3.122  10.853  -9.957  0.00  0.00    +0.000 HD
ATOM      6  H   UNL     1      -3.099   9.399 -10.947  0.00  0.00    +0.000 HD
BRANCH   4   7
ATOM      7  C   UNL     1      -2.747   9.044  -8.861  0.00  0.00    +0.000 C 
ATOM      8  H   UNL     1      -2.042   8.208  -8.891  0.00  0.00    +0.000 HD
ATOM      9  H   UNL     1      -2.542   9.628  -7.957  0.00  0.00    +0.000 HD
ATOM     10  H   UNL     1      -3.759   8.634  -8.782  0.00  0.00    +0.000 HD
ENDBRANCH   4   7
ENDBRANCH   1   4
BRANCH   1  12
ATOM     11  O   UNL     1      -0.929  10.590 -12.830  0.00  0.00    +0.000 OA
ATOM     12  C   UNL     1      -0.820   9.819 -11.886  0.00  0.00    +0.000 C 
BRANCH  12  13
ATOM     13  O   UNL     1      -0.392   8.523 -11.954  0.00  0.00    +0.000 OA
BRANCH  13  14
ATOM     14  C   UNL     1      -1.195   7.651 -12.756  0.00  0.00    +0.000 C 
ATOM     15  H   UNL     1      -1.834   8.247 -13.416  0.00  0.00    +0.000 HD
ATOM     16  H   UNL     1      -0.544   7.010 -13.361  0.00  0.00    +0.000 HD
BRANCH  14  17
ATOM     17  C   UNL     1      -2.053   6.797 -11.847  0.00  0.00    +0.000 C 
ATOM     18  H   UNL     1      -3.009   7.285 -11.641  0.00  0.00    +0.000 HD
ATOM     19  H   UNL     1      -2.244   5.821 -12.304  0.00  0.00    +0.000 HD
ATOM     20  H   UNL     1      -1.540   6.609 -10.898  0.00  0.00    +0.000 HD
ENDBRANCH  14  17
ENDBRANCH  13  14
ENDBRANCH  12  13
ENDBRANCH   1  12
TORSDOF 6
ENDMDL
MODEL 7
REMARK VINA RESULT:    -3.530      1.622      1.929
REMARK INTER + INTRA:          -4.714
REMARK INTER:                  -4.563
REMARK INTRA:                  -0.151
REMARK UNBOUND:                -0.152
REMARK  Name = 7762
REMARK  6 active torsions:
REMARK  status: ('A' for Active; 'I' for Inactive)
REMARK    1  A    between atoms: O_1  and  C_6
REMARK    2  A    between atoms: O_1  and  C_7
REMARK    3  A    between atoms: C_3  and  C_4
REMARK    4  A    between atoms: C_3  and  C_5
REMARK    5  A    between atoms: C_4  and  C_6
REMARK    6  A    between atoms: C_7  and  C_8
REMARK                            x       y       z     vdW  Elec       q    Type
REMARK                         _______ _______ _______ _____ _____    ______ ____
ROOT
ATOM      1  C   UNL     1      -2.930   7.115 -10.095  0.00  0.00    +0.000 C 
ATOM      2  H   UNL     1      -2.345   7.207 -11.018  0.00  0.00    +0.000 HD
ATOM      3  H   UNL     1      -2.465   6.358  -9.452  0.00  0.00    +0.000 HD
ENDROOT
BRANCH   1   4
ATOM      4  C   UNL     1      -4.359   6.693 -10.431  0.00  0.00    +0.000 C 
ATOM      5  H   UNL     1      -4.496   5.629 -10.207  0.00  0.00    +0.000 HD
ATOM      6  H   UNL     1      -5.069   7.242  -9.801  0.00  0.00    +0.000 HD
BRANCH   4   7
ATOM      7  C   UNL     1      -4.688   6.948 -11.892  0.00  0.00    +0.000 C 
ATOM      8  H   UNL     1      -4.790   8.022 -12.076  0.00  0.00    +0.000 HD
ATOM      9  H   UNL     1      -3.897   6.565 -12.546  0.00  0.00    +0.000 HD
ATOM     10  H   UNL     1      -5.629   6.464 -12.172  0.00  0.00    +0.000 HD
ENDBRANCH   4   7
ENDBRANCH   1   4
BRANCH   1  12
ATOM     11  O   UNL     1      -3.019   8.596  -8.169  0.00  0.00    +0.000 OA
ATOM     12  C   UNL     1      -2.885   8.443  -9.375  0.00  0.00    +0.000 C 
BRANCH  12  13
ATOM     13  O   UNL     1      -2.668   9.434 -10.291  0.00  0.00    +0.000 OA
BRANCH  13  14
ATOM     14  C   UNL     1      -1.327   9.933 -10.351  0.00  0.00    +0.000 C 
ATOM     15  H   UNL     1      -1.277  10.909  -9.856  0.00  0.00    +0.000 HD
ATOM     16  H   UNL     1      -0.654   9.233  -9.843  0.00  0.00    +0.000 HD
BRANCH  14  17
ATOM     17  C   UNL     1      -0.919  10.073 -11.802  0.00  0.00    +0.000 C 
ATOM     18  H   UNL     1      -1.243   9.208 -12.384  0.00  0.00    +0.000 HD
ATOM     19  H   UNL     1      -1.355  10.978 -12.239  0.00  0.00    +0.000 HD
ATOM     20  H   UNL     1       0.169  10.172 -11.888  0.00  0.00    +0.000 HD
ENDBRANCH  14  17
ENDBRANCH  13  14
ENDBRANCH  12  13
ENDBRANCH   1  12
TORSDOF 6
ENDMDL
MODEL 8
REMARK VINA RESULT:    -3.457      7.901      9.036
REMARK INTER + INTRA:          -4.620
REMARK INTER:                  -4.412
REMARK INTRA:                  -0.208
REMARK UNBOUND:                -0.152
REMARK  Name = 7762
REMARK  6 active torsions:
REMARK  status: ('A' for Active; 'I' for Inactive)
REMARK    1  A    between atoms: O_1  and  C_6
REMARK    2  A    between atoms: O_1  and  C_7
REMARK    3  A    between atoms: C_3  and  C_4
REMARK    4  A    between atoms: C_3  and  C_5
REMARK    5  A    between atoms: C_4  and  C_6
REMARK    6  A    between atoms: C_7  and  C_8
REMARK                            x       y       z     vdW  Elec       q    Type
REMARK                         _______ _______ _______ _____ _____    ______ ____
ROOT
ATOM      1  C   UNL     1      -8.317   5.654  -4.941  0.00  0.00    +0.000 C 
ATOM      2  H   UNL     1      -7.464   6.094  -4.412  0.00  0.00    +0.000 HD
ATOM      3  H   UNL     1      -9.244   6.090  -4.549  0.00  0.00    +0.000 HD
ENDROOT
BRANCH   1   4
ATOM      4  C   UNL     1      -8.333   4.142  -4.726  0.00  0.00    +0.000 C 
ATOM      5  H   UNL     1      -7.559   3.670  -5.342  0.00  0.00    +0.000 HD
ATOM      6  H   UNL     1      -8.090   3.910  -3.682  0.00  0.00    +0.000 HD
BRANCH   4   7
ATOM      7  C   UNL     1      -9.686   3.543  -5.068  0.00  0.00    +0.000 C 
ATOM      8  H   UNL     1     -10.438   4.332  -5.159  0.00  0.00    +0.000 HD
ATOM      9  H   UNL     1      -9.647   3.001  -6.019  0.00  0.00    +0.000 HD
ATOM     10  H   UNL     1     -10.015   2.847  -4.289  0.00  0.00    +0.000 HD
ENDBRANCH   4   7
ENDBRANCH   1   4
BRANCH   1  12
ATOM     11  O   UNL     1      -7.460   5.473  -7.209  0.00  0.00    +0.000 OA
ATOM     12  C   UNL     1      -8.202   6.018  -6.403  0.00  0.00    +0.000 C 
BRANCH  12  13
ATOM     13  O   UNL     1      -9.060   7.047  -6.671  0.00  0.00    +0.000 OA
BRANCH  13  14
ATOM     14  C   UNL     1      -9.871   7.474  -5.572  0.00  0.00    +0.000 C 
ATOM     15  H   UNL     1     -10.749   6.824  -5.491  0.00  0.00    +0.000 HD
ATOM     16  H   UNL     1      -9.290   7.415  -4.645  0.00  0.00    +0.000 HD
BRANCH  14  17
ATOM     17  C   UNL     1     -10.311   8.903  -5.810  0.00  0.00    +0.000 C 
ATOM     18  H   UNL     1     -10.498   9.417  -4.864  0.00  0.00    +0.000 HD
ATOM     19  H   UNL     1      -9.546   9.453  -6.367  0.00  0.00    +0.000 HD
ATOM     20  H   UNL     1     -11.224   8.929  -6.414  0.00  0.00    +0.000 HD
ENDBRANCH  14  17
ENDBRANCH  13  14
ENDBRANCH  12  13
ENDBRANCH   1  12
TORSDOF 6
ENDMDL
MODEL 9
REMARK VINA RESULT:    -3.378      7.805      9.325
REMARK INTER + INTRA:          -4.517
REMARK INTER:                  -4.288
REMARK INTRA:                  -0.229
REMARK UNBOUND:                -0.152
REMARK  Name = 7762
REMARK  6 active torsions:
REMARK  status: ('A' for Active; 'I' for Inactive)
REMARK    1  A    between atoms: O_1  and  C_6
REMARK    2  A    between atoms: O_1  and  C_7
REMARK    3  A    between atoms: C_3  and  C_4
REMARK    4  A    between atoms: C_3  and  C_5
REMARK    5  A    between atoms: C_4  and  C_6
REMARK    6  A    between atoms: C_7  and  C_8
REMARK                            x       y       z     vdW  Elec       q    Type
REMARK                         _______ _______ _______ _____ _____    ______ ____
ROOT
ATOM      1  C   UNL     1      -9.608   7.245  -6.711  0.00  0.00    +0.000 C 
ATOM      2  H   UNL     1      -9.418   7.732  -7.675  0.00  0.00    +0.000 HD
ATOM      3  H   UNL     1     -10.389   6.487  -6.843  0.00  0.00    +0.000 HD
ENDROOT
BRANCH   1   4
ATOM      4  C   UNL     1     -10.069   8.283  -5.691  0.00  0.00    +0.000 C 
ATOM      5  H   UNL     1      -9.376   8.304  -4.841  0.00  0.00    +0.000 HD
ATOM      6  H   UNL     1     -10.048   9.284  -6.140  0.00  0.00    +0.000 HD
BRANCH   4   7
ATOM      7  C   UNL     1     -11.473   7.990  -5.190  0.00  0.00    +0.000 C 
ATOM      8  H   UNL     1     -12.195   8.086  -6.007  0.00  0.00    +0.000 HD
ATOM      9  H   UNL     1     -11.543   6.972  -4.792  0.00  0.00    +0.000 HD
ATOM     10  H   UNL     1     -11.760   8.689  -4.398  0.00  0.00    +0.000 HD
ENDBRANCH   4   7
ENDBRANCH   1   4
BRANCH   1  12
ATOM     11  O   UNL     1      -7.365   6.351  -6.992  0.00  0.00    +0.000 OA
ATOM     12  C   UNL     1      -8.339   6.548  -6.279  0.00  0.00    +0.000 C 
BRANCH  12  13
ATOM     13  O   UNL     1      -8.461   6.182  -4.968  0.00  0.00    +0.000 OA
BRANCH  13  14
ATOM     14  C   UNL     1      -8.099   4.828  -4.671  0.00  0.00    +0.000 C 
ATOM     15  H   UNL     1      -7.245   4.534  -5.290  0.00  0.00    +0.000 HD
ATOM     16  H   UNL     1      -7.827   4.748  -3.613  0.00  0.00    +0.000 HD
BRANCH  14  17
ATOM     17  C   UNL     1      -9.280   3.928  -4.965  0.00  0.00    +0.000 C 
ATOM     18  H   UNL     1      -9.716   3.541  -4.041  0.00  0.00    +0.000 HD
ATOM     19  H   UNL     1     -10.051   4.473  -5.519  0.00  0.00    +0.000 HD
ATOM     20  H   UNL     1      -8.974   3.084  -5.593  0.00  0.00    +0.000 HD
ENDBRANCH  14  17
ENDBRANCH  13  14
ENDBRANCH  12  13
ENDBRANCH   1  12
TORSDOF 6
ENDMDL
MODEL 10
REMARK VINA RESULT:    -3.322     32.264     33.447
REMARK INTER + INTRA:          -4.445
REMARK INTER:                  -4.293
REMARK INTRA:                  -0.152
REMARK UNBOUND:                -0.152
REMARK  Name = 7762
REMARK  6 active torsions:
REMARK  status: ('A' for Active; 'I' for Inactive)
REMARK    1  A    between atoms: O_1  and  C_6
REMARK    2  A    between atoms: O_1  and  C_7
REMARK    3  A    between atoms: C_3  and  C_4
REMARK    4  A    between atoms: C_3  and  C_5
REMARK    5  A    between atoms: C_4  and  C_6
REMARK    6  A    between atoms: C_7  and  C_8
REMARK                            x       y       z     vdW  Elec       q    Type
REMARK                         _______ _______ _______ _____ _____    ______ ____
ROOT
ATOM      1  C   UNL     1      -9.463 -11.259  15.276  0.00  0.00    +0.000 C 
ATOM      2  H   UNL     1      -9.460 -11.407  16.363  0.00  0.00    +0.000 HD
ATOM      3  H   UNL     1     -10.231 -11.904  14.831  0.00  0.00    +0.000 HD
ENDROOT
BRANCH   1   4
ATOM      4  C   UNL     1      -8.095 -11.620  14.703  0.00  0.00    +0.000 C 
ATOM      5  H   UNL     1      -8.149 -12.586  14.188  0.00  0.00    +0.000 HD
ATOM      6  H   UNL     1      -7.796 -10.878  13.952  0.00  0.00    +0.000 HD
BRANCH   4   7
ATOM      7  C   UNL     1      -7.034 -11.686  15.788  0.00  0.00    +0.000 C 
ATOM      8  H   UNL     1      -7.122 -10.825  16.458  0.00  0.00    +0.000 HD
ATOM      9  H   UNL     1      -7.142 -12.595  16.389  0.00  0.00    +0.000 HD
ATOM     10  H   UNL     1      -6.029 -11.679  15.355  0.00  0.00    +0.000 HD
ENDBRANCH   4   7
ENDBRANCH   1   4
BRANCH   1  12
ATOM     11  O   UNL     1      -9.208  -9.059  14.275  0.00  0.00    +0.000 OA
ATOM     12  C   UNL     1      -9.833  -9.820  14.999  0.00  0.00    +0.000 C 
BRANCH  12  13
ATOM     13  O   UNL     1     -10.976  -9.518  15.686  0.00  0.00    +0.000 OA
BRANCH  13  14
ATOM     14  C   UNL     1     -11.491 -10.565  16.515  0.00  0.00    +0.000 C 
ATOM     15  H   UNL     1     -11.328 -11.532  16.026  0.00  0.00    +0.000 HD
ATOM     16  H   UNL     1     -10.974 -10.554  17.481  0.00  0.00    +0.000 HD
BRANCH  14  17
ATOM     17  C   UNL     1     -12.973 -10.342  16.726  0.00  0.00    +0.000 C 
ATOM     18  H   UNL     1     -13.384  -9.690  15.950  0.00  0.00    +0.000 HD
ATOM     19  H   UNL     1     -13.512 -11.294  16.710  0.00  0.00    +0.000 HD
ATOM     20  H   UNL     1     -13.159  -9.888  17.705  0.00  0.00    +0.000 HD
ENDBRANCH  14  17
ENDBRANCH  13  14
ENDBRANCH  12  13
ENDBRANCH   1  12
TORSDOF 6
ENDMDL
