MODEL 1
REMARK VINA RESULT:    -4.870      0.000      0.000
REMARK INTER + INTRA:          -8.153
REMARK INTER:                  -7.349
REMARK INTRA:                  -0.804
REMARK UNBOUND:                -0.437
REMARK  Name = 31251
REMARK  11 active torsions:
REMARK  status: ('A' for Active; 'I' for Inactive)
REMARK    1  A    between atoms: O_1  and  C_11
REMARK    2  A    between atoms: O_1  and  C_12
REMARK    3  A    between atoms: C_3  and  C_4
REMARK    4  A    between atoms: C_3  and  C_5
REMARK    5  A    between atoms: C_4  and  C_6
REMARK    6  A    between atoms: C_5  and  C_7
REMARK    7  A    between atoms: C_6  and  C_8
REMARK    8  A    between atoms: C_7  and  C_9
REMARK    9  A    between atoms: C_8  and  C_10
REMARK   10  A    between atoms: C_9  and  C_11
REMARK   11  A    between atoms: C_12  and  C_13
REMARK                            x       y       z     vdW  Elec       q    Type
REMARK                         _______ _______ _______ _____ _____    ______ ____
ROOT
ATOM      1  C   UNL     1      -1.370  10.021 -10.324  0.00  0.00    +0.000 C 
ATOM      2  H   UNL     1      -0.645   9.318  -9.899  0.00  0.00    +0.000 HD
ATOM      3  H   UNL     1      -1.053  11.030 -10.037  0.00  0.00    +0.000 HD
ENDROOT
BRANCH   1   4
ATOM      4  C   UNL     1      -2.759   9.734  -9.747  0.00  0.00    +0.000 C 
ATOM      5  H   UNL     1      -3.160  10.649  -9.295  0.00  0.00    +0.000 HD
ATOM      6  H   UNL     1      -3.439   9.460 -10.562  0.00  0.00    +0.000 HD
BRANCH   4   7
ATOM      7  C   UNL     1      -2.763   8.616  -8.700  0.00  0.00    +0.000 C 
ATOM      8  H   UNL     1      -3.212   9.001  -7.774  0.00  0.00    +0.000 HD
ATOM      9  H   UNL     1      -1.727   8.344  -8.459  0.00  0.00    +0.000 HD
BRANCH   7  10
ATOM     10  C   UNL     1      -3.521   7.365  -9.147  0.00  0.00    +0.000 C 
ATOM     11  H   UNL     1      -4.556   7.631  -9.396  0.00  0.00    +0.000 HD
ATOM     12  H   UNL     1      -3.562   6.647  -8.319  0.00  0.00    +0.000 HD
BRANCH  10  13
ATOM     13  C   UNL     1      -2.849   6.713 -10.357  0.00  0.00    +0.000 C 
ATOM     14  H   UNL     1      -1.858   7.154 -10.515  0.00  0.00    +0.000 HD
ATOM     15  H   UNL     1      -2.703   5.643 -10.170  0.00  0.00    +0.000 HD
BRANCH  13  16
ATOM     16  C   UNL     1      -3.681   6.887 -11.618  0.00  0.00    +0.000 C 
ATOM     17  H   UNL     1      -4.109   5.933 -11.941  0.00  0.00    +0.000 HD
ATOM     18  H   UNL     1      -3.074   7.288 -12.436  0.00  0.00    +0.000 HD
ATOM     19  H   UNL     1      -4.506   7.584 -11.434  0.00  0.00    +0.000 HD
ENDBRANCH  13  16
ENDBRANCH  10  13
ENDBRANCH   7  10
ENDBRANCH   4   7
ENDBRANCH   1   4
BRANCH   1  20
ATOM     20  C   UNL     1      -1.371   9.897 -11.852  0.00  0.00    +0.000 C 
ATOM     21  H   UNL     1      -1.225  10.889 -12.299  0.00  0.00    +0.000 HD
ATOM     22  H   UNL     1      -2.354   9.544 -12.189  0.00  0.00    +0.000 HD
BRANCH  20  23
ATOM     23  C   UNL     1      -0.290   8.946 -12.359  0.00  0.00    +0.000 C 
ATOM     24  H   UNL     1       0.692   9.284 -12.011  0.00  0.00    +0.000 HD
ATOM     25  H   UNL     1      -0.477   7.939 -11.971  0.00  0.00    +0.000 HD
BRANCH  23  27
ATOM     26  O   UNL     1      -1.160   8.406 -14.545  0.00  0.00    +0.000 OA
ATOM     27  C   UNL     1      -0.251   8.866 -13.865  0.00  0.00    +0.000 C 
BRANCH  27  28
ATOM     28  O   UNL     1       0.927   9.372 -14.331  0.00  0.00    +0.000 OA
BRANCH  28  29
ATOM     29  C   UNL     1       0.810  10.339 -15.379  0.00  0.00    +0.000 C 
ATOM     30  H   UNL     1      -0.029  10.072 -16.031  0.00  0.00    +0.000 HD
ATOM     31  H   UNL     1       1.736  10.356 -15.965  0.00  0.00    +0.000 HD
BRANCH  29  32
ATOM     32  C   UNL     1       0.568  11.702 -14.767  0.00  0.00    +0.000 C 
ATOM     33  H   UNL     1      -0.465  11.796 -14.417  0.00  0.00    +0.000 HD
ATOM     34  H   UNL     1       1.245  11.872 -13.924  0.00  0.00    +0.000 HD
ATOM     35  H   UNL     1       0.765  12.494 -15.497  0.00  0.00    +0.000 HD
ENDBRANCH  29  32
ENDBRANCH  28  29
ENDBRANCH  27  28
ENDBRANCH  23  27
ENDBRANCH  20  23
ENDBRANCH   1  20
TORSDOF 11
ENDMDL
MODEL 2
REMARK VINA RESULT:    -4.695      1.269      2.231
REMARK INTER + INTRA:          -7.877
REMARK INTER:                  -6.825
REMARK INTRA:                  -1.053
REMARK UNBOUND:                -0.437
REMARK  Name = 31251
REMARK  11 active torsions:
REMARK  status: ('A' for Active; 'I' for Inactive)
REMARK    1  A    between atoms: O_1  and  C_11
REMARK    2  A    between atoms: O_1  and  C_12
REMARK    3  A    between atoms: C_3  and  C_4
REMARK    4  A    between atoms: C_3  and  C_5
REMARK    5  A    between atoms: C_4  and  C_6
REMARK    6  A    between atoms: C_5  and  C_7
REMARK    7  A    between atoms: C_6  and  C_8
REMARK    8  A    between atoms: C_7  and  C_9
REMARK    9  A    between atoms: C_8  and  C_10
REMARK   10  A    between atoms: C_9  and  C_11
REMARK   11  A    between atoms: C_12  and  C_13
REMARK                            x       y       z     vdW  Elec       q    Type
REMARK                         _______ _______ _______ _____ _____    ______ ____
ROOT
ATOM      1  C   UNL     1      -2.393   9.998 -11.360  0.00  0.00    +0.000 C 
ATOM      2  H   UNL     1      -2.641  10.925 -11.891  0.00  0.00    +0.000 HD
ATOM      3  H   UNL     1      -2.838   9.171 -11.924  0.00  0.00    +0.000 HD
ENDROOT
BRANCH   1   4
ATOM      4  C   UNL     1      -2.993  10.042  -9.951  0.00  0.00    +0.000 C 
ATOM      5  H   UNL     1      -2.843  11.042  -9.525  0.00  0.00    +0.000 HD
ATOM      6  H   UNL     1      -4.076   9.885 -10.014  0.00  0.00    +0.000 HD
BRANCH   4   7
ATOM      7  C   UNL     1      -2.394   9.000  -9.002  0.00  0.00    +0.000 C 
ATOM      8  H   UNL     1      -2.223   9.469  -8.024  0.00  0.00    +0.000 HD
ATOM      9  H   UNL     1      -1.411   8.691  -9.380  0.00  0.00    +0.000 HD
BRANCH   7  10
ATOM     10  C   UNL     1      -3.275   7.763  -8.822  0.00  0.00    +0.000 C 
ATOM     11  H   UNL     1      -4.328   8.065  -8.772  0.00  0.00    +0.000 HD
ATOM     12  H   UNL     1      -3.033   7.277  -7.869  0.00  0.00    +0.000 HD
BRANCH  10  13
ATOM     13  C   UNL     1      -3.076   6.769  -9.968  0.00  0.00    +0.000 C 
ATOM     14  H   UNL     1      -2.167   7.022 -10.526  0.00  0.00    +0.000 HD
ATOM     15  H   UNL     1      -2.941   5.758  -9.566  0.00  0.00    +0.000 HD
BRANCH  13  16
ATOM     16  C   UNL     1      -4.263   6.769 -10.918  0.00  0.00    +0.000 C 
ATOM     17  H   UNL     1      -5.049   6.094 -10.566  0.00  0.00    +0.000 HD
ATOM     18  H   UNL     1      -3.962   6.453 -11.923  0.00  0.00    +0.000 HD
ATOM     19  H   UNL     1      -4.688   7.776 -10.993  0.00  0.00    +0.000 HD
ENDBRANCH  13  16
ENDBRANCH  10  13
ENDBRANCH   7  10
ENDBRANCH   4   7
ENDBRANCH   1   4
BRANCH   1  20
ATOM     20  C   UNL     1      -0.872   9.828 -11.307  0.00  0.00    +0.000 C 
ATOM     21  H   UNL     1      -0.555   9.693 -10.265  0.00  0.00    +0.000 HD
ATOM     22  H   UNL     1      -0.389  10.747 -11.662  0.00  0.00    +0.000 HD
BRANCH  20  23
ATOM     23  C   UNL     1      -0.389   8.646 -12.143  0.00  0.00    +0.000 C 
ATOM     24  H   UNL     1       0.596   8.321 -11.789  0.00  0.00    +0.000 HD
ATOM     25  H   UNL     1      -1.095   7.813 -12.043  0.00  0.00    +0.000 HD
BRANCH  23  27
ATOM     26  O   UNL     1       0.214  10.028 -14.028  0.00  0.00    +0.000 OA
ATOM     27  C   UNL     1      -0.271   8.984 -13.609  0.00  0.00    +0.000 C 
BRANCH  27  28
ATOM     28  O   UNL     1      -0.779   7.970 -14.366  0.00  0.00    +0.000 OA
BRANCH  28  29
ATOM     29  C   UNL     1      -1.824   7.208 -13.754  0.00  0.00    +0.000 C 
ATOM     30  H   UNL     1      -1.846   7.416 -12.679  0.00  0.00    +0.000 HD
ATOM     31  H   UNL     1      -1.639   6.140 -13.915  0.00  0.00    +0.000 HD
BRANCH  29  32
ATOM     32  C   UNL     1      -3.147   7.598 -14.377  0.00  0.00    +0.000 C 
ATOM     33  H   UNL     1      -3.915   7.737 -13.610  0.00  0.00    +0.000 HD
ATOM     34  H   UNL     1      -3.046   8.524 -14.950  0.00  0.00    +0.000 HD
ATOM     35  H   UNL     1      -3.486   6.827 -15.078  0.00  0.00    +0.000 HD
ENDBRANCH  29  32
ENDBRANCH  28  29
ENDBRANCH  27  28
ENDBRANCH  23  27
ENDBRANCH  20  23
ENDBRANCH   1  20
TORSDOF 11
ENDMDL
MODEL 3
REMARK VINA RESULT:    -4.632     27.794     28.884
REMARK INTER + INTRA:          -7.776
REMARK INTER:                  -7.257
REMARK INTRA:                  -0.520
REMARK UNBOUND:                -0.437
REMARK  Name = 31251
REMARK  11 active torsions:
REMARK  status: ('A' for Active; 'I' for Inactive)
REMARK    1  A    between atoms: O_1  and  C_11
REMARK    2  A    between atoms: O_1  and  C_12
REMARK    3  A    between atoms: C_3  and  C_4
REMARK    4  A    between atoms: C_3  and  C_5
REMARK    5  A    between atoms: C_4  and  C_6
REMARK    6  A    between atoms: C_5  and  C_7
REMARK    7  A    between atoms: C_6  and  C_8
REMARK    8  A    between atoms: C_7  and  C_9
REMARK    9  A    between atoms: C_8  and  C_10
REMARK   10  A    between atoms: C_9  and  C_11
REMARK   11  A    between atoms: C_12  and  C_13
REMARK                            x       y       z     vdW  Elec       q    Type
REMARK                         _______ _______ _______ _____ _____    ______ ____
ROOT
ATOM      1  C   UNL     1     -21.395  -1.705   4.914  0.00  0.00    +0.000 C 
ATOM      2  H   UNL     1     -22.098  -1.293   4.180  0.00  0.00    +0.000 HD
ATOM      3  H   UNL     1     -21.986  -2.077   5.758  0.00  0.00    +0.000 HD
ENDROOT
BRANCH   1   4
ATOM      4  C   UNL     1     -20.452  -0.598   5.393  0.00  0.00    +0.000 C 
ATOM      5  H   UNL     1     -19.562  -0.577   4.752  0.00  0.00    +0.000 HD
ATOM      6  H   UNL     1     -20.948   0.374   5.278  0.00  0.00    +0.000 HD
BRANCH   4   7
ATOM      7  C   UNL     1     -20.013  -0.761   6.851  0.00  0.00    +0.000 C 
ATOM      8  H   UNL     1     -19.790   0.231   7.267  0.00  0.00    +0.000 HD
ATOM      9  H   UNL     1     -19.078  -1.335   6.884  0.00  0.00    +0.000 HD
BRANCH   7  10
ATOM     10  C   UNL     1     -21.058  -1.454   7.728  0.00  0.00    +0.000 C 
ATOM     11  H   UNL     1     -20.555  -2.092   8.465  0.00  0.00    +0.000 HD
ATOM     12  H   UNL     1     -21.681  -2.108   7.106  0.00  0.00    +0.000 HD
BRANCH  10  13
ATOM     13  C   UNL     1     -21.944  -0.433   8.445  0.00  0.00    +0.000 C 
ATOM     14  H   UNL     1     -21.375   0.058   9.242  0.00  0.00    +0.000 HD
ATOM     15  H   UNL     1     -22.260   0.346   7.742  0.00  0.00    +0.000 HD
BRANCH  13  16
ATOM     16  C   UNL     1     -23.178  -1.091   9.044  0.00  0.00    +0.000 C 
ATOM     17  H   UNL     1     -22.976  -1.457  10.055  0.00  0.00    +0.000 HD
ATOM     18  H   UNL     1     -23.510  -1.935   8.431  0.00  0.00    +0.000 HD
ATOM     19  H   UNL     1     -24.000  -0.370   9.102  0.00  0.00    +0.000 HD
ENDBRANCH  13  16
ENDBRANCH  10  13
ENDBRANCH   7  10
ENDBRANCH   4   7
ENDBRANCH   1   4
BRANCH   1  20
ATOM     20  C   UNL     1     -20.613  -2.861   4.283  0.00  0.00    +0.000 C 
ATOM     21  H   UNL     1     -19.644  -2.493   3.921  0.00  0.00    +0.000 HD
ATOM     22  H   UNL     1     -21.153  -3.231   3.403  0.00  0.00    +0.000 HD
BRANCH  20  23
ATOM     23  C   UNL     1     -20.387  -4.013   5.259  0.00  0.00    +0.000 C 
ATOM     24  H   UNL     1     -19.849  -3.649   6.141  0.00  0.00    +0.000 HD
ATOM     25  H   UNL     1     -21.354  -4.420   5.576  0.00  0.00    +0.000 HD
BRANCH  23  27
ATOM     26  O   UNL     1     -18.470  -5.464   5.043  0.00  0.00    +0.000 OA
ATOM     27  C   UNL     1     -19.584  -5.137   4.652  0.00  0.00    +0.000 C 
BRANCH  27  28
ATOM     28  O   UNL     1     -20.279  -5.709   3.628  0.00  0.00    +0.000 OA
BRANCH  28  29
ATOM     29  C   UNL     1     -19.506  -6.044   2.471  0.00  0.00    +0.000 C 
ATOM     30  H   UNL     1     -18.903  -6.935   2.680  0.00  0.00    +0.000 HD
ATOM     31  H   UNL     1     -18.844  -5.208   2.219  0.00  0.00    +0.000 HD
BRANCH  29  32
ATOM     32  C   UNL     1     -20.443  -6.321   1.315  0.00  0.00    +0.000 C 
ATOM     33  H   UNL     1     -20.571  -7.397   1.164  0.00  0.00    +0.000 HD
ATOM     34  H   UNL     1     -21.424  -5.869   1.498  0.00  0.00    +0.000 HD
ATOM     35  H   UNL     1     -20.057  -5.878   0.391  0.00  0.00    +0.000 HD
ENDBRANCH  29  32
ENDBRANCH  28  29
ENDBRANCH  27  28
ENDBRANCH  23  27
ENDBRANCH  20  23
ENDBRANCH   1  20
TORSDOF 11
ENDMDL
MODEL 4
REMARK VINA RESULT:    -4.532      1.286      2.731
REMARK INTER + INTRA:          -7.618
REMARK INTER:                  -6.810
REMARK INTRA:                  -0.808
REMARK UNBOUND:                -0.437
REMARK  Name = 31251
REMARK  11 active torsions:
REMARK  status: ('A' for Active; 'I' for Inactive)
REMARK    1  A    between atoms: O_1  and  C_11
REMARK    2  A    between atoms: O_1  and  C_12
REMARK    3  A    between atoms: C_3  and  C_4
REMARK    4  A    between atoms: C_3  and  C_5
REMARK    5  A    between atoms: C_4  and  C_6
REMARK    6  A    between atoms: C_5  and  C_7
REMARK    7  A    between atoms: C_6  and  C_8
REMARK    8  A    between atoms: C_7  and  C_9
REMARK    9  A    between atoms: C_8  and  C_10
REMARK   10  A    between atoms: C_9  and  C_11
REMARK   11  A    between atoms: C_12  and  C_13
REMARK                            x       y       z     vdW  Elec       q    Type
REMARK                         _______ _______ _______ _____ _____    ______ ____
ROOT
ATOM      1  C   UNL     1      -4.057   7.090 -11.965  0.00  0.00    +0.000 C 
ATOM      2  H   UNL     1      -4.360   8.121 -12.183  0.00  0.00    +0.000 HD
ATOM      3  H   UNL     1      -4.735   6.428 -12.516  0.00  0.00    +0.000 HD
ENDROOT
BRANCH   1   4
ATOM      4  C   UNL     1      -4.188   6.827 -10.462  0.00  0.00    +0.000 C 
ATOM      5  H   UNL     1      -5.005   7.438 -10.058  0.00  0.00    +0.000 HD
ATOM      6  H   UNL     1      -4.468   5.779 -10.302  0.00  0.00    +0.000 HD
BRANCH   4   7
ATOM      7  C   UNL     1      -2.907   7.125  -9.679  0.00  0.00    +0.000 C 
ATOM      8  H   UNL     1      -2.129   7.451 -10.383  0.00  0.00    +0.000 HD
ATOM      9  H   UNL     1      -2.544   6.198  -9.215  0.00  0.00    +0.000 HD
BRANCH   7  10
ATOM     10  C   UNL     1      -3.088   8.190  -8.596  0.00  0.00    +0.000 C 
ATOM     11  H   UNL     1      -2.353   8.032  -7.797  0.00  0.00    +0.000 HD
ATOM     12  H   UNL     1      -4.082   8.087  -8.145  0.00  0.00    +0.000 HD
BRANCH  10  13
ATOM     13  C   UNL     1      -2.931   9.598  -9.173  0.00  0.00    +0.000 C 
ATOM     14  H   UNL     1      -3.847   9.887  -9.702  0.00  0.00    +0.000 HD
ATOM     15  H   UNL     1      -2.783  10.319  -8.361  0.00  0.00    +0.000 HD
BRANCH  13  16
ATOM     16  C   UNL     1      -1.753   9.680 -10.130  0.00  0.00    +0.000 C 
ATOM     17  H   UNL     1      -2.092   9.844 -11.158  0.00  0.00    +0.000 HD
ATOM     18  H   UNL     1      -1.162   8.759 -10.105  0.00  0.00    +0.000 HD
ATOM     19  H   UNL     1      -1.097  10.512  -9.853  0.00  0.00    +0.000 HD
ENDBRANCH  13  16
ENDBRANCH  10  13
ENDBRANCH   7  10
ENDBRANCH   4   7
ENDBRANCH   1   4
BRANCH   1  20
ATOM     20  C   UNL     1      -2.618   6.866 -12.441  0.00  0.00    +0.000 C 
ATOM     21  H   UNL     1      -2.215   5.960 -11.970  0.00  0.00    +0.000 HD
ATOM     22  H   UNL     1      -1.988   7.699 -12.105  0.00  0.00    +0.000 HD
BRANCH  20  23
ATOM     23  C   UNL     1      -2.520   6.737 -13.959  0.00  0.00    +0.000 C 
ATOM     24  H   UNL     1      -2.177   5.731 -14.223  0.00  0.00    +0.000 HD
ATOM     25  H   UNL     1      -3.507   6.905 -14.405  0.00  0.00    +0.000 HD
BRANCH  23  27
ATOM     26  O   UNL     1      -1.464   7.940 -15.766  0.00  0.00    +0.000 OA
ATOM     27  C   UNL     1      -1.559   7.731 -14.562  0.00  0.00    +0.000 C 
BRANCH  27  28
ATOM     28  O   UNL     1      -0.835   8.339 -13.580  0.00  0.00    +0.000 OA
BRANCH  28  29
ATOM     29  C   UNL     1       0.198   9.221 -14.032  0.00  0.00    +0.000 C 
ATOM     30  H   UNL     1       0.398   9.035 -15.093  0.00  0.00    +0.000 HD
ATOM     31  H   UNL     1       1.111   9.041 -13.453  0.00  0.00    +0.000 HD
BRANCH  29  32
ATOM     32  C   UNL     1      -0.256  10.652 -13.840  0.00  0.00    +0.000 C 
ATOM     33  H   UNL     1      -1.348  10.713 -13.798  0.00  0.00    +0.000 HD
ATOM     34  H   UNL     1       0.158  11.067 -12.916  0.00  0.00    +0.000 HD
ATOM     35  H   UNL     1       0.101  11.284 -14.661  0.00  0.00    +0.000 HD
ENDBRANCH  29  32
ENDBRANCH  28  29
ENDBRANCH  27  28
ENDBRANCH  23  27
ENDBRANCH  20  23
ENDBRANCH   1  20
TORSDOF 11
ENDMDL
MODEL 5
REMARK VINA RESULT:    -4.532     15.906     17.636
REMARK INTER + INTRA:          -7.617
REMARK INTER:                  -7.078
REMARK INTRA:                  -0.539
REMARK UNBOUND:                -0.437
REMARK  Name = 31251
REMARK  11 active torsions:
REMARK  status: ('A' for Active; 'I' for Inactive)
REMARK    1  A    between atoms: O_1  and  C_11
REMARK    2  A    between atoms: O_1  and  C_12
REMARK    3  A    between atoms: C_3  and  C_4
REMARK    4  A    between atoms: C_3  and  C_5
REMARK    5  A    between atoms: C_4  and  C_6
REMARK    6  A    between atoms: C_5  and  C_7
REMARK    7  A    between atoms: C_6  and  C_8
REMARK    8  A    between atoms: C_7  and  C_9
REMARK    9  A    between atoms: C_8  and  C_10
REMARK   10  A    between atoms: C_9  and  C_11
REMARK   11  A    between atoms: C_12  and  C_13
REMARK                            x       y       z     vdW  Elec       q    Type
REMARK                         _______ _______ _______ _____ _____    ______ ____
ROOT
ATOM      1  C   UNL     1       7.237   8.616   3.425  0.00  0.00    +0.000 C 
ATOM      2  H   UNL     1       8.250   8.306   3.143  0.00  0.00    +0.000 HD
ATOM      3  H   UNL     1       7.206   9.710   3.377  0.00  0.00    +0.000 HD
ENDROOT
BRANCH   1   4
ATOM      4  C   UNL     1       6.942   8.153   4.854  0.00  0.00    +0.000 C 
ATOM      5  H   UNL     1       5.920   8.447   5.126  0.00  0.00    +0.000 HD
ATOM      6  H   UNL     1       6.977   7.058   4.895  0.00  0.00    +0.000 HD
BRANCH   4   7
ATOM      7  C   UNL     1       7.916   8.720   5.890  0.00  0.00    +0.000 C 
ATOM      8  H   UNL     1       8.823   9.062   5.373  0.00  0.00    +0.000 HD
ATOM      9  H   UNL     1       8.226   7.917   6.572  0.00  0.00    +0.000 HD
BRANCH   7  10
ATOM     10  C   UNL     1       7.334   9.875   6.707  0.00  0.00    +0.000 C 
ATOM     11  H   UNL     1       7.241   9.573   7.757  0.00  0.00    +0.000 HD
ATOM     12  H   UNL     1       6.324  10.105   6.346  0.00  0.00    +0.000 HD
BRANCH  10  13
ATOM     13  C   UNL     1       8.210  11.125   6.602  0.00  0.00    +0.000 C 
ATOM     14  H   UNL     1       7.717  11.873   5.971  0.00  0.00    +0.000 HD
ATOM     15  H   UNL     1       8.343  11.571   7.594  0.00  0.00    +0.000 HD
BRANCH  13  16
ATOM     16  C   UNL     1       9.576  10.800   6.018  0.00  0.00    +0.000 C 
ATOM     17  H   UNL     1      10.280  11.621   6.186  0.00  0.00    +0.000 HD
ATOM     18  H   UNL     1       9.509  10.618   4.941  0.00  0.00    +0.000 HD
ATOM     19  H   UNL     1       9.985   9.900   6.489  0.00  0.00    +0.000 HD
ENDBRANCH  13  16
ENDBRANCH  10  13
ENDBRANCH   7  10
ENDBRANCH   4   7
ENDBRANCH   1   4
BRANCH   1  20
ATOM     20  C   UNL     1       6.226   8.028   2.435  0.00  0.00    +0.000 C 
ATOM     21  H   UNL     1       6.478   6.978   2.235  0.00  0.00    +0.000 HD
ATOM     22  H   UNL     1       6.305   8.555   1.475  0.00  0.00    +0.000 HD
BRANCH  20  23
ATOM     23  C   UNL     1       4.790   8.119   2.945  0.00  0.00    +0.000 C 
ATOM     24  H   UNL     1       4.286   7.158   2.801  0.00  0.00    +0.000 HD
ATOM     25  H   UNL     1       4.796   8.361   4.014  0.00  0.00    +0.000 HD
BRANCH  23  27
ATOM     26  O   UNL     1       2.851   9.502   2.552  0.00  0.00    +0.000 OA
ATOM     27  C   UNL     1       3.989   9.179   2.231  0.00  0.00    +0.000 C 
BRANCH  27  28
ATOM     28  O   UNL     1       4.715   9.702   1.202  0.00  0.00    +0.000 OA
BRANCH  28  29
ATOM     29  C   UNL     1       3.953  10.347   0.177  0.00  0.00    +0.000 C 
ATOM     30  H   UNL     1       3.302  11.105   0.627  0.00  0.00    +0.000 HD
ATOM     31  H   UNL     1       3.339   9.604  -0.345  0.00  0.00    +0.000 HD
BRANCH  29  32
ATOM     32  C   UNL     1       4.902  11.005  -0.802  0.00  0.00    +0.000 C 
ATOM     33  H   UNL     1       5.602  11.666  -0.283  0.00  0.00    +0.000 HD
ATOM     34  H   UNL     1       5.470  10.250  -1.355  0.00  0.00    +0.000 HD
ATOM     35  H   UNL     1       4.347  11.591  -1.543  0.00  0.00    +0.000 HD
ENDBRANCH  29  32
ENDBRANCH  28  29
ENDBRANCH  27  28
ENDBRANCH  23  27
ENDBRANCH  20  23
ENDBRANCH   1  20
TORSDOF 11
ENDMDL
MODEL 6
REMARK VINA RESULT:    -4.515     19.352     21.980
REMARK INTER + INTRA:          -7.591
REMARK INTER:                  -6.965
REMARK INTRA:                  -0.626
REMARK UNBOUND:                -0.437
REMARK  Name = 31251
REMARK  11 active torsions:
REMARK  status: ('A' for Active; 'I' for Inactive)
REMARK    1  A    between atoms: O_1  and  C_11
REMARK    2  A    between atoms: O_1  and  C_12
REMARK    3  A    between atoms: C_3  and  C_4
REMARK    4  A    between atoms: C_3  and  C_5
REMARK    5  A    between atoms: C_4  and  C_6
REMARK    6  A    between atoms: C_5  and  C_7
REMARK    7  A    between atoms: C_6  and  C_8
REMARK    8  A    between atoms: C_7  and  C_9
REMARK    9  A    between atoms: C_8  and  C_10
REMARK   10  A    between atoms: C_9  and  C_11
REMARK   11  A    between atoms: C_12  and  C_13
REMARK                            x       y       z     vdW  Elec       q    Type
REMARK                         _______ _______ _______ _____ _____    ______ ____
ROOT
ATOM      1  C   UNL     1      -9.040  11.022   6.219  0.00  0.00    +0.000 C 
ATOM      2  H   UNL     1      -9.942  10.606   5.755  0.00  0.00    +0.000 HD
ATOM      3  H   UNL     1      -9.298  12.019   6.594  0.00  0.00    +0.000 HD
ENDROOT
BRANCH   1   4
ATOM      4  C   UNL     1      -7.932  11.137   5.169  0.00  0.00    +0.000 C 
ATOM      5  H   UNL     1      -6.997  10.738   5.583  0.00  0.00    +0.000 HD
ATOM      6  H   UNL     1      -8.187  10.511   4.305  0.00  0.00    +0.000 HD
BRANCH   4   7
ATOM      7  C   UNL     1      -7.694  12.572   4.690  0.00  0.00    +0.000 C 
ATOM      8  H   UNL     1      -8.471  13.220   5.117  0.00  0.00    +0.000 HD
ATOM      9  H   UNL     1      -7.813  12.613   3.600  0.00  0.00    +0.000 HD
BRANCH   7  10
ATOM     10  C   UNL     1      -6.316  13.119   5.066  0.00  0.00    +0.000 C 
ATOM     11  H   UNL     1      -5.732  13.301   4.156  0.00  0.00    +0.000 HD
ATOM     12  H   UNL     1      -5.773  12.369   5.654  0.00  0.00    +0.000 HD
BRANCH  10  13
ATOM     13  C   UNL     1      -6.435  14.413   5.872  0.00  0.00    +0.000 C 
ATOM     14  H   UNL     1      -5.540  15.028   5.722  0.00  0.00    +0.000 HD
ATOM     15  H   UNL     1      -7.293  14.996   5.519  0.00  0.00    +0.000 HD
BRANCH  13  16
ATOM     16  C   UNL     1      -6.605  14.131   7.357  0.00  0.00    +0.000 C 
ATOM     17  H   UNL     1      -5.688  13.711   7.784  0.00  0.00    +0.000 HD
ATOM     18  H   UNL     1      -7.422  13.423   7.531  0.00  0.00    +0.000 HD
ATOM     19  H   UNL     1      -6.837  15.056   7.894  0.00  0.00    +0.000 HD
ENDBRANCH  13  16
ENDBRANCH  10  13
ENDBRANCH   7  10
ENDBRANCH   4   7
ENDBRANCH   1   4
BRANCH   1  20
ATOM     20  C   UNL     1      -8.605  10.129   7.386  0.00  0.00    +0.000 C 
ATOM     21  H   UNL     1      -7.843   9.420   7.038  0.00  0.00    +0.000 HD
ATOM     22  H   UNL     1      -9.458   9.528   7.724  0.00  0.00    +0.000 HD
BRANCH  20  23
ATOM     23  C   UNL     1      -8.053  10.932   8.561  0.00  0.00    +0.000 C 
ATOM     24  H   UNL     1      -7.153  11.472   8.249  0.00  0.00    +0.000 HD
ATOM     25  H   UNL     1      -8.805  11.658   8.893  0.00  0.00    +0.000 HD
BRANCH  23  27
ATOM     26  O   UNL     1      -6.542   9.859  10.107  0.00  0.00    +0.000 OA
ATOM     27  C   UNL     1      -7.693  10.061   9.739  0.00  0.00    +0.000 C 
BRANCH  27  28
ATOM     28  O   UNL     1      -8.822   9.551  10.307  0.00  0.00    +0.000 OA
BRANCH  28  29
ATOM     29  C   UNL     1      -8.737   8.186  10.729  0.00  0.00    +0.000 C 
ATOM     30  H   UNL     1      -7.809   8.035  11.292  0.00  0.00    +0.000 HD
ATOM     31  H   UNL     1      -8.739   7.531   9.850  0.00  0.00    +0.000 HD
BRANCH  29  32
ATOM     32  C   UNL     1      -9.926   7.866  11.608  0.00  0.00    +0.000 C 
ATOM     33  H   UNL     1      -9.613   7.686  12.640  0.00  0.00    +0.000 HD
ATOM     34  H   UNL     1     -10.648   8.689  11.594  0.00  0.00    +0.000 HD
ATOM     35  H   UNL     1     -10.451   6.978  11.239  0.00  0.00    +0.000 HD
ENDBRANCH  29  32
ENDBRANCH  28  29
ENDBRANCH  27  28
ENDBRANCH  23  27
ENDBRANCH  20  23
ENDBRANCH   1  20
TORSDOF 11
ENDMDL
MODEL 7
REMARK VINA RESULT:    -4.423      3.339      4.848
REMARK INTER + INTRA:          -7.445
REMARK INTER:                  -6.965
REMARK INTRA:                  -0.480
REMARK UNBOUND:                -0.437
REMARK  Name = 31251
REMARK  11 active torsions:
REMARK  status: ('A' for Active; 'I' for Inactive)
REMARK    1  A    between atoms: O_1  and  C_11
REMARK    2  A    between atoms: O_1  and  C_12
REMARK    3  A    between atoms: C_3  and  C_4
REMARK    4  A    between atoms: C_3  and  C_5
REMARK    5  A    between atoms: C_4  and  C_6
REMARK    6  A    between atoms: C_5  and  C_7
REMARK    7  A    between atoms: C_6  and  C_8
REMARK    8  A    between atoms: C_7  and  C_9
REMARK    9  A    between atoms: C_8  and  C_10
REMARK   10  A    between atoms: C_9  and  C_11
REMARK   11  A    between atoms: C_12  and  C_13
REMARK                            x       y       z     vdW  Elec       q    Type
REMARK                         _______ _______ _______ _____ _____    ______ ____
ROOT
ATOM      1  C   UNL     1      -4.485   6.718 -10.045  0.00  0.00    +0.000 C 
ATOM      2  H   UNL     1      -5.021   7.594 -10.430  0.00  0.00    +0.000 HD
ATOM      3  H   UNL     1      -4.601   5.915 -10.782  0.00  0.00    +0.000 HD
ENDROOT
BRANCH   1   4
ATOM      4  C   UNL     1      -5.104   6.287  -8.713  0.00  0.00    +0.000 C 
ATOM      5  H   UNL     1      -4.347   5.768  -8.112  0.00  0.00    +0.000 HD
ATOM      6  H   UNL     1      -5.401   7.178  -8.147  0.00  0.00    +0.000 HD
BRANCH   4   7
ATOM      7  C   UNL     1      -6.323   5.374  -8.875  0.00  0.00    +0.000 C 
ATOM      8  H   UNL     1      -6.162   4.461  -8.287  0.00  0.00    +0.000 HD
ATOM      9  H   UNL     1      -6.404   5.063  -9.925  0.00  0.00    +0.000 HD
BRANCH   7  10
ATOM     10  C   UNL     1      -7.637   6.029  -8.443  0.00  0.00    +0.000 C 
ATOM     11  H   UNL     1      -8.479   5.388  -8.730  0.00  0.00    +0.000 HD
ATOM     12  H   UNL     1      -7.761   6.982  -8.971  0.00  0.00    +0.000 HD
BRANCH  10  13
ATOM     13  C   UNL     1      -7.663   6.274  -6.933  0.00  0.00    +0.000 C 
ATOM     14  H   UNL     1      -7.649   5.316  -6.401  0.00  0.00    +0.000 HD
ATOM     15  H   UNL     1      -6.768   6.829  -6.629  0.00  0.00    +0.000 HD
BRANCH  13  16
ATOM     16  C   UNL     1      -8.898   7.059  -6.518  0.00  0.00    +0.000 C 
ATOM     17  H   UNL     1      -9.643   6.403  -6.055  0.00  0.00    +0.000 HD
ATOM     18  H   UNL     1      -9.359   7.550  -7.380  0.00  0.00    +0.000 HD
ATOM     19  H   UNL     1      -8.628   7.832  -5.791  0.00  0.00    +0.000 HD
ENDBRANCH  13  16
ENDBRANCH  10  13
ENDBRANCH   7  10
ENDBRANCH   4   7
ENDBRANCH   1   4
BRANCH   1  20
ATOM     20  C   UNL     1      -3.000   7.056  -9.880  0.00  0.00    +0.000 C 
ATOM     21  H   UNL     1      -2.539   7.170 -10.869  0.00  0.00    +0.000 HD
ATOM     22  H   UNL     1      -2.487   6.217  -9.393  0.00  0.00    +0.000 HD
BRANCH  20  23
ATOM     23  C   UNL     1      -2.779   8.327  -9.064  0.00  0.00    +0.000 C 
ATOM     24  H   UNL     1      -3.652   8.516  -8.431  0.00  0.00    +0.000 HD
ATOM     25  H   UNL     1      -1.897   8.203  -8.426  0.00  0.00    +0.000 HD
BRANCH  23  27
ATOM     26  O   UNL     1      -3.468  10.204 -10.416  0.00  0.00    +0.000 OA
ATOM     27  C   UNL     1      -2.559   9.540  -9.934  0.00  0.00    +0.000 C 
BRANCH  27  28
ATOM     28  O   UNL     1      -1.224   9.769 -10.091  0.00  0.00    +0.000 OA
BRANCH  28  29
ATOM     29  C   UNL     1      -0.814  10.143 -11.411  0.00  0.00    +0.000 C 
ATOM     30  H   UNL     1       0.048  10.815 -11.348  0.00  0.00    +0.000 HD
ATOM     31  H   UNL     1      -1.640  10.655 -11.918  0.00  0.00    +0.000 HD
BRANCH  29  32
ATOM     32  C   UNL     1      -0.435   8.896 -12.181  0.00  0.00    +0.000 C 
ATOM     33  H   UNL     1      -1.177   8.672 -12.953  0.00  0.00    +0.000 HD
ATOM     34  H   UNL     1       0.544   9.018 -12.654  0.00  0.00    +0.000 HD
ATOM     35  H   UNL     1      -0.357   8.035 -11.507  0.00  0.00    +0.000 HD
ENDBRANCH  29  32
ENDBRANCH  28  29
ENDBRANCH  27  28
ENDBRANCH  23  27
ENDBRANCH  20  23
ENDBRANCH   1  20
TORSDOF 11
ENDMDL
MODEL 8
REMARK VINA RESULT:    -4.393      5.639      8.888
REMARK INTER + INTRA:          -7.397
REMARK INTER:                  -6.909
REMARK INTRA:                  -0.488
REMARK UNBOUND:                -0.437
REMARK  Name = 31251
REMARK  11 active torsions:
REMARK  status: ('A' for Active; 'I' for Inactive)
REMARK    1  A    between atoms: O_1  and  C_11
REMARK    2  A    between atoms: O_1  and  C_12
REMARK    3  A    between atoms: C_3  and  C_4
REMARK    4  A    between atoms: C_3  and  C_5
REMARK    5  A    between atoms: C_4  and  C_6
REMARK    6  A    between atoms: C_5  and  C_7
REMARK    7  A    between atoms: C_6  and  C_8
REMARK    8  A    between atoms: C_7  and  C_9
REMARK    9  A    between atoms: C_8  and  C_10
REMARK   10  A    between atoms: C_9  and  C_11
REMARK   11  A    between atoms: C_12  and  C_13
REMARK                            x       y       z     vdW  Elec       q    Type
REMARK                         _______ _______ _______ _____ _____    ______ ____
ROOT
ATOM      1  C   UNL     1      -5.082   6.027  -8.639  0.00  0.00    +0.000 C 
ATOM      2  H   UNL     1      -5.048   6.726  -7.795  0.00  0.00    +0.000 HD
ATOM      3  H   UNL     1      -4.507   5.140  -8.350  0.00  0.00    +0.000 HD
ENDROOT
BRANCH   1   4
ATOM      4  C   UNL     1      -4.440   6.679  -9.867  0.00  0.00    +0.000 C 
ATOM      5  H   UNL     1      -4.452   5.969 -10.703  0.00  0.00    +0.000 HD
ATOM      6  H   UNL     1      -5.044   7.541 -10.176  0.00  0.00    +0.000 HD
BRANCH   4   7
ATOM      7  C   UNL     1      -3.000   7.143  -9.627  0.00  0.00    +0.000 C 
ATOM      8  H   UNL     1      -2.499   7.258 -10.597  0.00  0.00    +0.000 HD
ATOM      9  H   UNL     1      -2.455   6.361  -9.082  0.00  0.00    +0.000 HD
BRANCH   7  10
ATOM     10  C   UNL     1      -2.905   8.457  -8.849  0.00  0.00    +0.000 C 
ATOM     11  H   UNL     1      -2.394   8.283  -7.894  0.00  0.00    +0.000 HD
ATOM     12  H   UNL     1      -3.914   8.817  -8.615  0.00  0.00    +0.000 HD
BRANCH  10  13
ATOM     13  C   UNL     1      -2.155   9.522  -9.651  0.00  0.00    +0.000 C 
ATOM     14  H   UNL     1      -1.919  10.376  -9.005  0.00  0.00    +0.000 HD
ATOM     15  H   UNL     1      -1.204   9.115 -10.014  0.00  0.00    +0.000 HD
BRANCH  13  16
ATOM     16  C   UNL     1      -2.973  10.005 -10.838  0.00  0.00    +0.000 C 
ATOM     17  H   UNL     1      -2.367  10.625 -11.507  0.00  0.00    +0.000 HD
ATOM     18  H   UNL     1      -3.834  10.594 -10.508  0.00  0.00    +0.000 HD
ATOM     19  H   UNL     1      -3.347   9.151 -11.413  0.00  0.00    +0.000 HD
ENDBRANCH  13  16
ENDBRANCH  10  13
ENDBRANCH   7  10
ENDBRANCH   4   7
ENDBRANCH   1   4
BRANCH   1  20
ATOM     20  C   UNL     1      -6.535   5.632  -8.921  0.00  0.00    +0.000 C 
ATOM     21  H   UNL     1      -6.671   5.486 -10.000  0.00  0.00    +0.000 HD
ATOM     22  H   UNL     1      -7.200   6.455  -8.631  0.00  0.00    +0.000 HD
BRANCH  20  23
ATOM     23  C   UNL     1      -6.948   4.363  -8.179  0.00  0.00    +0.000 C 
ATOM     24  H   UNL     1      -6.976   3.520  -8.878  0.00  0.00    +0.000 HD
ATOM     25  H   UNL     1      -6.218   4.146  -7.390  0.00  0.00    +0.000 HD
BRANCH  23  27
ATOM     26  O   UNL     1      -8.990   3.524  -7.204  0.00  0.00    +0.000 OA
ATOM     27  C   UNL     1      -8.307   4.485  -7.537  0.00  0.00    +0.000 C 
BRANCH  27  28
ATOM     28  O   UNL     1      -8.642   5.799  -7.395  0.00  0.00    +0.000 OA
BRANCH  28  29
ATOM     29  C   UNL     1      -9.312   6.135  -6.175  0.00  0.00    +0.000 C 
ATOM     30  H   UNL     1      -9.998   5.326  -5.900  0.00  0.00    +0.000 HD
ATOM     31  H   UNL     1      -9.879   7.062  -6.313  0.00  0.00    +0.000 HD
BRANCH  29  32
ATOM     32  C   UNL     1      -8.281   6.324  -5.083  0.00  0.00    +0.000 C 
ATOM     33  H   UNL     1      -7.526   7.058  -5.381  0.00  0.00    +0.000 HD
ATOM     34  H   UNL     1      -8.757   6.661  -4.157  0.00  0.00    +0.000 HD
ATOM     35  H   UNL     1      -7.781   5.376  -4.856  0.00  0.00    +0.000 HD
ENDBRANCH  29  32
ENDBRANCH  28  29
ENDBRANCH  27  28
ENDBRANCH  23  27
ENDBRANCH  20  23
ENDBRANCH   1  20
TORSDOF 11
ENDMDL
MODEL 9
REMARK VINA RESULT:    -4.372      4.297      6.069
REMARK INTER + INTRA:          -7.365
REMARK INTER:                  -6.928
REMARK INTRA:                  -0.437
REMARK UNBOUND:                -0.437
REMARK  Name = 31251
REMARK  11 active torsions:
REMARK  status: ('A' for Active; 'I' for Inactive)
REMARK    1  A    between atoms: O_1  and  C_11
REMARK    2  A    between atoms: O_1  and  C_12
REMARK    3  A    between atoms: C_3  and  C_4
REMARK    4  A    between atoms: C_3  and  C_5
REMARK    5  A    between atoms: C_4  and  C_6
REMARK    6  A    between atoms: C_5  and  C_7
REMARK    7  A    between atoms: C_6  and  C_8
REMARK    8  A    between atoms: C_7  and  C_9
REMARK    9  A    between atoms: C_8  and  C_10
REMARK   10  A    between atoms: C_9  and  C_11
REMARK   11  A    between atoms: C_12  and  C_13
REMARK                            x       y       z     vdW  Elec       q    Type
REMARK                         _______ _______ _______ _____ _____    ______ ____
ROOT
ATOM      1  C   UNL     1      -5.745   6.202  -9.949  0.00  0.00    +0.000 C 
ATOM      2  H   UNL     1      -5.863   7.137 -10.510  0.00  0.00    +0.000 HD
ATOM      3  H   UNL     1      -5.417   5.436 -10.661  0.00  0.00    +0.000 HD
ENDROOT
BRANCH   1   4
ATOM      4  C   UNL     1      -7.092   5.798  -9.343  0.00  0.00    +0.000 C 
ATOM      5  H   UNL     1      -7.868   6.492  -9.690  0.00  0.00    +0.000 HD
ATOM      6  H   UNL     1      -7.370   4.803  -9.710  0.00  0.00    +0.000 HD
BRANCH   4   7
ATOM      7  C   UNL     1      -7.088   5.779  -7.812  0.00  0.00    +0.000 C 
ATOM      8  H   UNL     1      -7.614   6.671  -7.445  0.00  0.00    +0.000 HD
ATOM      9  H   UNL     1      -6.054   5.853  -7.452  0.00  0.00    +0.000 HD
BRANCH   7  10
ATOM     10  C   UNL     1      -7.738   4.528  -7.217  0.00  0.00    +0.000 C 
ATOM     11  H   UNL     1      -6.960   3.850  -6.846  0.00  0.00    +0.000 HD
ATOM     12  H   UNL     1      -8.286   3.993  -8.002  0.00  0.00    +0.000 HD
BRANCH  10  13
ATOM     13  C   UNL     1      -8.695   4.888  -6.079  0.00  0.00    +0.000 C 
ATOM     14  H   UNL     1      -8.558   5.938  -5.797  0.00  0.00    +0.000 HD
ATOM     15  H   UNL     1      -9.732   4.774  -6.414  0.00  0.00    +0.000 HD
BRANCH  13  16
ATOM     16  C   UNL     1      -8.467   4.008  -4.860  0.00  0.00    +0.000 C 
ATOM     17  H   UNL     1      -8.649   2.955  -5.097  0.00  0.00    +0.000 HD
ATOM     18  H   UNL     1      -9.132   4.296  -4.039  0.00  0.00    +0.000 HD
ATOM     19  H   UNL     1      -7.434   4.105  -4.511  0.00  0.00    +0.000 HD
ENDBRANCH  13  16
ENDBRANCH  10  13
ENDBRANCH   7  10
ENDBRANCH   4   7
ENDBRANCH   1   4
BRANCH   1  20
ATOM     20  C   UNL     1      -4.682   6.385  -8.861  0.00  0.00    +0.000 C 
ATOM     21  H   UNL     1      -4.620   5.472  -8.255  0.00  0.00    +0.000 HD
ATOM     22  H   UNL     1      -4.990   7.190  -8.182  0.00  0.00    +0.000 HD
BRANCH  20  23
ATOM     23  C   UNL     1      -3.307   6.709  -9.439  0.00  0.00    +0.000 C 
ATOM     24  H   UNL     1      -2.565   6.010  -9.038  0.00  0.00    +0.000 HD
ATOM     25  H   UNL     1      -3.336   6.609 -10.530  0.00  0.00    +0.000 HD
BRANCH  23  27
ATOM     26  O   UNL     1      -3.181   8.706  -8.090  0.00  0.00    +0.000 OA
ATOM     27  C   UNL     1      -2.857   8.110  -9.110  0.00  0.00    +0.000 C 
BRANCH  27  28
ATOM     28  O   UNL     1      -2.057   8.591 -10.104  0.00  0.00    +0.000 OA
BRANCH  28  29
ATOM     29  C   UNL     1      -2.382   9.903 -10.576  0.00  0.00    +0.000 C 
ATOM     30  H   UNL     1      -1.481  10.381 -10.975  0.00  0.00    +0.000 HD
ATOM     31  H   UNL     1      -2.776  10.502  -9.747  0.00  0.00    +0.000 HD
BRANCH  29  32
ATOM     32  C   UNL     1      -3.425   9.789 -11.667  0.00  0.00    +0.000 C 
ATOM     33  H   UNL     1      -3.543  10.739 -12.196  0.00  0.00    +0.000 HD
ATOM     34  H   UNL     1      -3.147   9.013 -12.387  0.00  0.00    +0.000 HD
ATOM     35  H   UNL     1      -4.394   9.498 -11.245  0.00  0.00    +0.000 HD
ENDBRANCH  29  32
ENDBRANCH  28  29
ENDBRANCH  27  28
ENDBRANCH  23  27
ENDBRANCH  20  23
ENDBRANCH   1  20
TORSDOF 11
ENDMDL
MODEL 10
REMARK VINA RESULT:    -4.344     18.684     21.606
REMARK INTER + INTRA:          -7.320
REMARK INTER:                  -6.608
REMARK INTRA:                  -0.712
REMARK UNBOUND:                -0.437
REMARK  Name = 31251
REMARK  11 active torsions:
REMARK  status: ('A' for Active; 'I' for Inactive)
REMARK    1  A    between atoms: O_1  and  C_11
REMARK    2  A    between atoms: O_1  and  C_12
REMARK    3  A    between atoms: C_3  and  C_4
REMARK    4  A    between atoms: C_3  and  C_5
REMARK    5  A    between atoms: C_4  and  C_6
REMARK    6  A    between atoms: C_5  and  C_7
REMARK    7  A    between atoms: C_6  and  C_8
REMARK    8  A    between atoms: C_7  and  C_9
REMARK    9  A    between atoms: C_8  and  C_10
REMARK   10  A    between atoms: C_9  and  C_11
REMARK   11  A    between atoms: C_12  and  C_13
REMARK                            x       y       z     vdW  Elec       q    Type
REMARK                         _______ _______ _______ _____ _____    ______ ____
ROOT
ATOM      1  C   UNL     1      -6.569  13.016   8.009  0.00  0.00    +0.000 C 
ATOM      2  H   UNL     1      -6.346  13.494   8.971  0.00  0.00    +0.000 HD
ATOM      3  H   UNL     1      -5.743  12.331   7.787  0.00  0.00    +0.000 HD
ENDROOT
BRANCH   1   4
ATOM      4  C   UNL     1      -6.659  14.085   6.917  0.00  0.00    +0.000 C 
ATOM      5  H   UNL     1      -7.633  14.587   6.981  0.00  0.00    +0.000 HD
ATOM      6  H   UNL     1      -5.897  14.852   7.098  0.00  0.00    +0.000 HD
BRANCH   4   7
ATOM      7  C   UNL     1      -6.477  13.527   5.503  0.00  0.00    +0.000 C 
ATOM      8  H   UNL     1      -6.213  12.463   5.574  0.00  0.00    +0.000 HD
ATOM      9  H   UNL     1      -5.628  14.031   5.023  0.00  0.00    +0.000 HD
BRANCH   7  10
ATOM     10  C   UNL     1      -7.718  13.683   4.622  0.00  0.00    +0.000 C 
ATOM     11  H   UNL     1      -7.431  14.120   3.657  0.00  0.00    +0.000 HD
ATOM     12  H   UNL     1      -8.418  14.381   5.097  0.00  0.00    +0.000 HD
BRANCH  10  13
ATOM     13  C   UNL     1      -8.410  12.338   4.397  0.00  0.00    +0.000 C 
ATOM     14  H   UNL     1      -9.227  12.215   5.118  0.00  0.00    +0.000 HD
ATOM     15  H   UNL     1      -8.853  12.309   3.395  0.00  0.00    +0.000 HD
BRANCH  13  16
ATOM     16  C   UNL     1      -7.436  11.179   4.541  0.00  0.00    +0.000 C 
ATOM     17  H   UNL     1      -7.937  10.293   4.945  0.00  0.00    +0.000 HD
ATOM     18  H   UNL     1      -6.610  11.442   5.210  0.00  0.00    +0.000 HD
ATOM     19  H   UNL     1      -7.013  10.916   3.566  0.00  0.00    +0.000 HD
ENDBRANCH  13  16
ENDBRANCH  10  13
ENDBRANCH   7  10
ENDBRANCH   4   7
ENDBRANCH   1   4
BRANCH   1  20
ATOM     20  C   UNL     1      -7.878  12.227   8.119  0.00  0.00    +0.000 C 
ATOM     21  H   UNL     1      -8.222  11.950   7.115  0.00  0.00    +0.000 HD
ATOM     22  H   UNL     1      -8.656  12.869   8.549  0.00  0.00    +0.000 HD
BRANCH  20  23
ATOM     23  C   UNL     1      -7.730  10.970   8.972  0.00  0.00    +0.000 C 
ATOM     24  H   UNL     1      -6.700  10.604   8.916  0.00  0.00    +0.000 HD
ATOM     25  H   UNL     1      -7.967  11.206  10.016  0.00  0.00    +0.000 HD
BRANCH  23  27
ATOM     26  O   UNL     1      -8.672   9.415   7.384  0.00  0.00    +0.000 OA
ATOM     27  C   UNL     1      -8.647   9.858   8.526  0.00  0.00    +0.000 C 
BRANCH  27  28
ATOM     28  O   UNL     1      -9.419   9.439   9.569  0.00  0.00    +0.000 OA
BRANCH  28  29
ATOM     29  C   UNL     1      -8.771   8.576  10.509  0.00  0.00    +0.000 C 
ATOM     30  H   UNL     1      -8.029   9.147  11.078  0.00  0.00    +0.000 HD
ATOM     31  H   UNL     1      -8.270   7.762   9.972  0.00  0.00    +0.000 HD
BRANCH  29  32
ATOM     32  C   UNL     1      -9.809   8.005  11.450  0.00  0.00    +0.000 C 
ATOM     33  H   UNL     1     -10.736   7.775  10.917  0.00  0.00    +0.000 HD
ATOM     34  H   UNL     1      -9.437   7.092  11.926  0.00  0.00    +0.000 HD
ATOM     35  H   UNL     1     -10.031   8.714  12.255  0.00  0.00    +0.000 HD
ENDBRANCH  29  32
ENDBRANCH  28  29
ENDBRANCH  27  28
ENDBRANCH  23  27
ENDBRANCH  20  23
ENDBRANCH   1  20
TORSDOF 11
ENDMDL
