MODEL 1
REMARK VINA RESULT:    -4.584      0.000      0.000
REMARK INTER + INTRA:          -6.982
REMARK INTER:                  -6.629
REMARK INTRA:                  -0.353
REMARK UNBOUND:                -0.253
REMARK  Name = 7797
REMARK  9 active torsions:
REMARK  status: ('A' for Active; 'I' for Inactive)
REMARK    1  A    between atoms: O_1  and  C_9
REMARK    2  A    between atoms: O_1  and  C_10
REMARK    3  A    between atoms: C_3  and  C_4
REMARK    4  A    between atoms: C_3  and  C_5
REMARK    5  A    between atoms: C_4  and  C_6
REMARK    6  A    between atoms: C_5  and  C_7
REMARK    7  A    between atoms: C_6  and  C_8
REMARK    8  A    between atoms: C_7  and  C_9
REMARK    9  A    between atoms: C_10  and  C_11
REMARK                            x       y       z     vdW  Elec       q    Type
REMARK                         _______ _______ _______ _____ _____    ______ ____
ROOT
ATOM      1  C   UNL     1       5.862   8.576   2.385  0.00  0.00    +0.000 C 
ATOM      2  H   UNL     1       5.824   9.318   3.194  0.00  0.00    +0.000 HD
ATOM      3  H   UNL     1       6.863   8.650   1.942  0.00  0.00    +0.000 HD
ENDROOT
BRANCH   1   4
ATOM      4  C   UNL     1       5.663   7.173   2.966  0.00  0.00    +0.000 C 
ATOM      5  H   UNL     1       4.593   6.934   2.990  0.00  0.00    +0.000 HD
ATOM      6  H   UNL     1       6.145   6.436   2.313  0.00  0.00    +0.000 HD
BRANCH   4   7
ATOM      7  C   UNL     1       6.248   7.069   4.376  0.00  0.00    +0.000 C 
ATOM      8  H   UNL     1       5.628   6.396   4.984  0.00  0.00    +0.000 HD
ATOM      9  H   UNL     1       7.250   6.625   4.325  0.00  0.00    +0.000 HD
BRANCH   7  10
ATOM     10  C   UNL     1       6.325   8.438   5.049  0.00  0.00    +0.000 C 
ATOM     11  H   UNL     1       5.606   8.489   5.874  0.00  0.00    +0.000 HD
ATOM     12  H   UNL     1       6.052   9.221   4.332  0.00  0.00    +0.000 HD
BRANCH  10  13
ATOM     13  C   UNL     1       7.721   8.718   5.582  0.00  0.00    +0.000 C 
ATOM     14  H   UNL     1       8.213   7.793   5.900  0.00  0.00    +0.000 HD
ATOM     15  H   UNL     1       7.669   9.389   6.445  0.00  0.00    +0.000 HD
ATOM     16  H   UNL     1       8.345   9.193   4.819  0.00  0.00    +0.000 HD
ENDBRANCH  10  13
ENDBRANCH   7  10
ENDBRANCH   4   7
ENDBRANCH   1   4
BRANCH   1  17
ATOM     17  C   UNL     1       4.814   8.925   1.327  0.00  0.00    +0.000 C 
ATOM     18  H   UNL     1       5.284   9.504   0.524  0.00  0.00    +0.000 HD
ATOM     19  H   UNL     1       4.407   7.999   0.904  0.00  0.00    +0.000 HD
BRANCH  17  21
ATOM     20  O   UNL     1       2.827   9.330   2.669  0.00  0.00    +0.000 OA
ATOM     21  C   UNL     1       3.663   9.738   1.875  0.00  0.00    +0.000 C 
BRANCH  21  22
ATOM     22  O   UNL     1       3.694  10.984   1.315  0.00  0.00    +0.000 OA
BRANCH  22  23
ATOM     23  C   UNL     1       4.387  11.082   0.067  0.00  0.00    +0.000 C 
ATOM     24  H   UNL     1       5.120  11.896   0.123  0.00  0.00    +0.000 HD
ATOM     25  H   UNL     1       4.912  10.141  -0.129  0.00  0.00    +0.000 HD
BRANCH  23  26
ATOM     26  C   UNL     1       3.410  11.355  -1.025  0.00  0.00    +0.000 C 
ATOM     27  H   UNL     1       3.900  11.805  -1.893  0.00  0.00    +0.000 HD
ATOM     28  H   UNL     1       2.913  10.432  -1.343  0.00  0.00    +0.000 HD
ATOM     29  H   UNL     1       2.620  12.033  -0.681  0.00  0.00    +0.000 HD
ENDBRANCH  23  26
ENDBRANCH  22  23
ENDBRANCH  21  22
ENDBRANCH  17  21
ENDBRANCH   1  17
TORSDOF 9
ENDMDL
MODEL 2
REMARK VINA RESULT:    -4.581     27.634     28.467
REMARK INTER + INTRA:          -6.977
REMARK INTER:                  -6.525
REMARK INTRA:                  -0.452
REMARK UNBOUND:                -0.253
REMARK  Name = 7797
REMARK  9 active torsions:
REMARK  status: ('A' for Active; 'I' for Inactive)
REMARK    1  A    between atoms: O_1  and  C_9
REMARK    2  A    between atoms: O_1  and  C_10
REMARK    3  A    between atoms: C_3  and  C_4
REMARK    4  A    between atoms: C_3  and  C_5
REMARK    5  A    between atoms: C_4  and  C_6
REMARK    6  A    between atoms: C_5  and  C_7
REMARK    7  A    between atoms: C_6  and  C_8
REMARK    8  A    between atoms: C_7  and  C_9
REMARK    9  A    between atoms: C_10  and  C_11
REMARK                            x       y       z     vdW  Elec       q    Type
REMARK                         _______ _______ _______ _____ _____    ______ ____
ROOT
ATOM      1  C   UNL     1     -20.816  -2.927   4.404  0.00  0.00    +0.000 C 
ATOM      2  H   UNL     1     -21.505  -3.399   3.693  0.00  0.00    +0.000 HD
ATOM      3  H   UNL     1     -19.982  -2.529   3.813  0.00  0.00    +0.000 HD
ENDROOT
BRANCH   1   4
ATOM      4  C   UNL     1     -21.529  -1.776   5.123  0.00  0.00    +0.000 C 
ATOM      5  H   UNL     1     -22.331  -1.386   4.485  0.00  0.00    +0.000 HD
ATOM      6  H   UNL     1     -21.997  -2.153   6.040  0.00  0.00    +0.000 HD
BRANCH   4   7
ATOM      7  C   UNL     1     -20.552  -0.651   5.472  0.00  0.00    +0.000 C 
ATOM      8  H   UNL     1     -19.659  -0.728   4.839  0.00  0.00    +0.000 HD
ATOM      9  H   UNL     1     -21.019   0.319   5.255  0.00  0.00    +0.000 HD
BRANCH   7  10
ATOM     10  C   UNL     1     -20.142  -0.706   6.942  0.00  0.00    +0.000 C 
ATOM     11  H   UNL     1     -19.650   0.231   7.227  0.00  0.00    +0.000 HD
ATOM     12  H   UNL     1     -19.417  -1.513   7.096  0.00  0.00    +0.000 HD
BRANCH  10  13
ATOM     13  C   UNL     1     -21.343  -0.937   7.846  0.00  0.00    +0.000 C 
ATOM     14  H   UNL     1     -21.057  -0.875   8.901  0.00  0.00    +0.000 HD
ATOM     15  H   UNL     1     -21.767  -1.930   7.668  0.00  0.00    +0.000 HD
ATOM     16  H   UNL     1     -22.125  -0.195   7.658  0.00  0.00    +0.000 HD
ENDBRANCH  10  13
ENDBRANCH   7  10
ENDBRANCH   4   7
ENDBRANCH   1   4
BRANCH   1  17
ATOM     17  C   UNL     1     -20.288  -3.983   5.376  0.00  0.00    +0.000 C 
ATOM     18  H   UNL     1     -19.617  -3.509   6.103  0.00  0.00    +0.000 HD
ATOM     19  H   UNL     1     -21.131  -4.433   5.913  0.00  0.00    +0.000 HD
BRANCH  17  21
ATOM     20  O   UNL     1     -18.453  -5.550   5.072  0.00  0.00    +0.000 OA
ATOM     21  C   UNL     1     -19.521  -5.092   4.691  0.00  0.00    +0.000 C 
BRANCH  21  22
ATOM     22  O   UNL     1     -20.201  -5.473   3.568  0.00  0.00    +0.000 OA
BRANCH  22  23
ATOM     23  C   UNL     1     -19.388  -5.940   2.486  0.00  0.00    +0.000 C 
ATOM     24  H   UNL     1     -18.535  -6.497   2.889  0.00  0.00    +0.000 HD
ATOM     25  H   UNL     1     -19.982  -6.606   1.850  0.00  0.00    +0.000 HD
BRANCH  23  26
ATOM     26  C   UNL     1     -18.904  -4.777   1.690  0.00  0.00    +0.000 C 
ATOM     27  H   UNL     1     -19.093  -4.921   0.622  0.00  0.00    +0.000 HD
ATOM     28  H   UNL     1     -19.399  -3.853   2.009  0.00  0.00    +0.000 HD
ATOM     29  H   UNL     1     -17.830  -4.623   1.836  0.00  0.00    +0.000 HD
ENDBRANCH  23  26
ENDBRANCH  22  23
ENDBRANCH  21  22
ENDBRANCH  17  21
ENDBRANCH   1  17
TORSDOF 9
ENDMDL
MODEL 3
REMARK VINA RESULT:    -4.557      2.996      4.445
REMARK INTER + INTRA:          -6.941
REMARK INTER:                  -6.473
REMARK INTRA:                  -0.468
REMARK UNBOUND:                -0.253
REMARK  Name = 7797
REMARK  9 active torsions:
REMARK  status: ('A' for Active; 'I' for Inactive)
REMARK    1  A    between atoms: O_1  and  C_9
REMARK    2  A    between atoms: O_1  and  C_10
REMARK    3  A    between atoms: C_3  and  C_4
REMARK    4  A    between atoms: C_3  and  C_5
REMARK    5  A    between atoms: C_4  and  C_6
REMARK    6  A    between atoms: C_5  and  C_7
REMARK    7  A    between atoms: C_6  and  C_8
REMARK    8  A    between atoms: C_7  and  C_9
REMARK    9  A    between atoms: C_10  and  C_11
REMARK                            x       y       z     vdW  Elec       q    Type
REMARK                         _______ _______ _______ _____ _____    ______ ____
ROOT
ATOM      1  C   UNL     1       6.220  11.252  -0.661  0.00  0.00    +0.000 C 
ATOM      2  H   UNL     1       6.735  11.991  -1.288  0.00  0.00    +0.000 HD
ATOM      3  H   UNL     1       5.693  10.576  -1.346  0.00  0.00    +0.000 HD
ENDROOT
BRANCH   1   4
ATOM      4  C   UNL     1       7.250  10.459   0.149  0.00  0.00    +0.000 C 
ATOM      5  H   UNL     1       8.206  10.995   0.153  0.00  0.00    +0.000 HD
ATOM      6  H   UNL     1       6.915  10.384   1.191  0.00  0.00    +0.000 HD
BRANCH   4   7
ATOM      7  C   UNL     1       7.447   9.055  -0.427  0.00  0.00    +0.000 C 
ATOM      8  H   UNL     1       7.705   8.357   0.380  0.00  0.00    +0.000 HD
ATOM      9  H   UNL     1       6.505   8.705  -0.869  0.00  0.00    +0.000 HD
BRANCH   7  10
ATOM     10  C   UNL     1       8.548   9.039  -1.487  0.00  0.00    +0.000 C 
ATOM     11  H   UNL     1       8.124   9.280  -2.468  0.00  0.00    +0.000 HD
ATOM     12  H   UNL     1       8.982   8.035  -1.558  0.00  0.00    +0.000 HD
BRANCH  10  13
ATOM     13  C   UNL     1       9.650  10.034  -1.159  0.00  0.00    +0.000 C 
ATOM     14  H   UNL     1       9.588  10.359  -0.116  0.00  0.00    +0.000 HD
ATOM     15  H   UNL     1       9.563  10.920  -1.797  0.00  0.00    +0.000 HD
ATOM     16  H   UNL     1      10.639   9.594  -1.323  0.00  0.00    +0.000 HD
ENDBRANCH  10  13
ENDBRANCH   7  10
ENDBRANCH   4   7
ENDBRANCH   1   4
BRANCH   1  17
ATOM     17  C   UNL     1       5.201  11.964   0.229  0.00  0.00    +0.000 C 
ATOM     18  H   UNL     1       5.424  11.756   1.282  0.00  0.00    +0.000 HD
ATOM     19  H   UNL     1       5.268  13.046   0.060  0.00  0.00    +0.000 HD
BRANCH  17  21
ATOM     20  O   UNL     1       3.217  11.579  -1.125  0.00  0.00    +0.000 OA
ATOM     21  C   UNL     1       3.775  11.536  -0.037  0.00  0.00    +0.000 C 
BRANCH  21  22
ATOM     22  O   UNL     1       3.209  11.125   1.137  0.00  0.00    +0.000 OA
BRANCH  22  23
ATOM     23  C   UNL     1       3.837  10.002   1.764  0.00  0.00    +0.000 C 
ATOM     24  H   UNL     1       4.906  10.209   1.888  0.00  0.00    +0.000 HD
ATOM     25  H   UNL     1       3.387   9.840   2.749  0.00  0.00    +0.000 HD
BRANCH  23  26
ATOM     26  C   UNL     1       3.651   8.791   0.915  0.00  0.00    +0.000 C 
ATOM     27  H   UNL     1       2.898   8.121   1.340  0.00  0.00    +0.000 HD
ATOM     28  H   UNL     1       3.340   9.068  -0.098  0.00  0.00    +0.000 HD
ATOM     29  H   UNL     1       4.592   8.238   0.813  0.00  0.00    +0.000 HD
ENDBRANCH  23  26
ENDBRANCH  22  23
ENDBRANCH  21  22
ENDBRANCH  17  21
ENDBRANCH   1  17
TORSDOF 9
ENDMDL
MODEL 4
REMARK VINA RESULT:    -4.478     14.417     15.671
REMARK INTER + INTRA:          -6.826
REMARK INTER:                  -6.483
REMARK INTRA:                  -0.343
REMARK UNBOUND:                -0.253
REMARK  Name = 7797
REMARK  9 active torsions:
REMARK  status: ('A' for Active; 'I' for Inactive)
REMARK    1  A    between atoms: O_1  and  C_9
REMARK    2  A    between atoms: O_1  and  C_10
REMARK    3  A    between atoms: C_3  and  C_4
REMARK    4  A    between atoms: C_3  and  C_5
REMARK    5  A    between atoms: C_4  and  C_6
REMARK    6  A    between atoms: C_5  and  C_7
REMARK    7  A    between atoms: C_6  and  C_8
REMARK    8  A    between atoms: C_7  and  C_9
REMARK    9  A    between atoms: C_10  and  C_11
REMARK                            x       y       z     vdW  Elec       q    Type
REMARK                         _______ _______ _______ _____ _____    ______ ____
ROOT
ATOM      1  C   UNL     1      -1.240   9.909 -10.285  0.00  0.00    +0.000 C 
ATOM      2  H   UNL     1      -0.860  10.823  -9.809  0.00  0.00    +0.000 HD
ATOM      3  H   UNL     1      -0.648   9.078  -9.883  0.00  0.00    +0.000 HD
ENDROOT
BRANCH   1   4
ATOM      4  C   UNL     1      -2.714   9.714  -9.916  0.00  0.00    +0.000 C 
ATOM      5  H   UNL     1      -3.126  10.656  -9.537  0.00  0.00    +0.000 HD
ATOM      6  H   UNL     1      -3.283   9.449 -10.815  0.00  0.00    +0.000 HD
BRANCH   4   7
ATOM      7  C   UNL     1      -2.880   8.617  -8.862  0.00  0.00    +0.000 C 
ATOM      8  H   UNL     1      -1.981   8.567  -8.235  0.00  0.00    +0.000 HD
ATOM      9  H   UNL     1      -3.720   8.868  -8.202  0.00  0.00    +0.000 HD
BRANCH   7  10
ATOM     10  C   UNL     1      -3.126   7.256  -9.510  0.00  0.00    +0.000 C 
ATOM     11  H   UNL     1      -2.225   6.637  -9.431  0.00  0.00    +0.000 HD
ATOM     12  H   UNL     1      -3.338   7.384 -10.578  0.00  0.00    +0.000 HD
BRANCH  10  13
ATOM     13  C   UNL     1      -4.292   6.530  -8.857  0.00  0.00    +0.000 C 
ATOM     14  H   UNL     1      -3.938   5.716  -8.217  0.00  0.00    +0.000 HD
ATOM     15  H   UNL     1      -4.947   6.101  -9.621  0.00  0.00    +0.000 HD
ATOM     16  H   UNL     1      -4.887   7.214  -8.244  0.00  0.00    +0.000 HD
ENDBRANCH  10  13
ENDBRANCH   7  10
ENDBRANCH   4   7
ENDBRANCH   1   4
BRANCH   1  17
ATOM     17  C   UNL     1      -1.024   9.999 -11.796  0.00  0.00    +0.000 C 
ATOM     18  H   UNL     1      -1.972  10.247 -12.288  0.00  0.00    +0.000 HD
ATOM     19  H   UNL     1      -0.296  10.791 -12.011  0.00  0.00    +0.000 HD
BRANCH  17  21
ATOM     20  O   UNL     1      -0.750   7.590 -11.981  0.00  0.00    +0.000 OA
ATOM     21  C   UNL     1      -0.509   8.713 -12.402  0.00  0.00    +0.000 C 
BRANCH  21  22
ATOM     22  O   UNL     1       0.287   9.012 -13.471  0.00  0.00    +0.000 OA
BRANCH  22  23
ATOM     23  C   UNL     1      -0.021  10.237 -14.144  0.00  0.00    +0.000 C 
ATOM     24  H   UNL     1      -1.025  10.169 -14.577  0.00  0.00    +0.000 HD
ATOM     25  H   UNL     1       0.002  11.062 -13.423  0.00  0.00    +0.000 HD
BRANCH  23  26
ATOM     26  C   UNL     1       0.981  10.478 -15.222  0.00  0.00    +0.000 C 
ATOM     27  H   UNL     1       0.989   9.658 -15.946  0.00  0.00    +0.000 HD
ATOM     28  H   UNL     1       0.764  11.411 -15.754  0.00  0.00    +0.000 HD
ATOM     29  H   UNL     1       1.987  10.583 -14.802  0.00  0.00    +0.000 HD
ENDBRANCH  23  26
ENDBRANCH  22  23
ENDBRANCH  21  22
ENDBRANCH  17  21
ENDBRANCH   1  17
TORSDOF 9
ENDMDL
MODEL 5
REMARK VINA RESULT:    -4.384     13.758     15.496
REMARK INTER + INTRA:          -6.688
REMARK INTER:                  -6.410
REMARK INTRA:                  -0.277
REMARK UNBOUND:                -0.253
REMARK  Name = 7797
REMARK  9 active torsions:
REMARK  status: ('A' for Active; 'I' for Inactive)
REMARK    1  A    between atoms: O_1  and  C_9
REMARK    2  A    between atoms: O_1  and  C_10
REMARK    3  A    between atoms: C_3  and  C_4
REMARK    4  A    between atoms: C_3  and  C_5
REMARK    5  A    between atoms: C_4  and  C_6
REMARK    6  A    between atoms: C_5  and  C_7
REMARK    7  A    between atoms: C_6  and  C_8
REMARK    8  A    between atoms: C_7  and  C_9
REMARK    9  A    between atoms: C_10  and  C_11
REMARK                            x       y       z     vdW  Elec       q    Type
REMARK                         _______ _______ _______ _____ _____    ______ ____
ROOT
ATOM      1  C   UNL     1      -9.183   9.896   7.455  0.00  0.00    +0.000 C 
ATOM      2  H   UNL     1      -9.899  10.313   8.175  0.00  0.00    +0.000 HD
ATOM      3  H   UNL     1      -9.777   9.435   6.656  0.00  0.00    +0.000 HD
ENDROOT
BRANCH   1   4
ATOM      4  C   UNL     1      -8.327  11.024   6.871  0.00  0.00    +0.000 C 
ATOM      5  H   UNL     1      -8.530  11.956   7.411  0.00  0.00    +0.000 HD
ATOM      6  H   UNL     1      -7.266  10.790   7.017  0.00  0.00    +0.000 HD
BRANCH   4   7
ATOM      7  C   UNL     1      -8.609  11.219   5.380  0.00  0.00    +0.000 C 
ATOM      8  H   UNL     1      -9.088  10.318   4.974  0.00  0.00    +0.000 HD
ATOM      9  H   UNL     1      -9.316  12.048   5.246  0.00  0.00    +0.000 HD
BRANCH   7  10
ATOM     10  C   UNL     1      -7.325  11.508   4.604  0.00  0.00    +0.000 C 
ATOM     11  H   UNL     1      -7.545  11.578   3.533  0.00  0.00    +0.000 HD
ATOM     12  H   UNL     1      -6.616  10.683   4.736  0.00  0.00    +0.000 HD
BRANCH  10  13
ATOM     13  C   UNL     1      -6.674  12.801   5.068  0.00  0.00    +0.000 C 
ATOM     14  H   UNL     1      -6.404  13.432   4.215  0.00  0.00    +0.000 HD
ATOM     15  H   UNL     1      -5.762  12.585   5.633  0.00  0.00    +0.000 HD
ATOM     16  H   UNL     1      -7.348  13.370   5.716  0.00  0.00    +0.000 HD
ENDBRANCH  10  13
ENDBRANCH   7  10
ENDBRANCH   4   7
ENDBRANCH   1   4
BRANCH   1  17
ATOM     17  C   UNL     1      -8.341   8.821   8.143  0.00  0.00    +0.000 C 
ATOM     18  H   UNL     1      -8.892   7.873   8.151  0.00  0.00    +0.000 HD
ATOM     19  H   UNL     1      -7.407   8.682   7.586  0.00  0.00    +0.000 HD
BRANCH  17  21
ATOM     20  O   UNL     1      -6.855   9.341   9.996  0.00  0.00    +0.000 OA
ATOM     21  C   UNL     1      -7.988   9.164   9.573  0.00  0.00    +0.000 C 
BRANCH  21  22
ATOM     22  O   UNL     1      -9.136   9.213  10.314  0.00  0.00    +0.000 OA
BRANCH  22  23
ATOM     23  C   UNL     1      -9.369   8.086  11.165  0.00  0.00    +0.000 C 
ATOM     24  H   UNL     1      -9.053   7.173  10.649  0.00  0.00    +0.000 HD
ATOM     25  H   UNL     1      -8.781   8.200  12.083  0.00  0.00    +0.000 HD
BRANCH  23  26
ATOM     26  C   UNL     1     -10.819   8.005  11.497  0.00  0.00    +0.000 C 
ATOM     27  H   UNL     1     -11.430   8.482  10.725  0.00  0.00    +0.000 HD
ATOM     28  H   UNL     1     -11.138   6.962  11.599  0.00  0.00    +0.000 HD
ATOM     29  H   UNL     1     -11.028   8.491  12.456  0.00  0.00    +0.000 HD
ENDBRANCH  23  26
ENDBRANCH  22  23
ENDBRANCH  21  22
ENDBRANCH  17  21
ENDBRANCH   1  17
TORSDOF 9
ENDMDL
MODEL 6
REMARK VINA RESULT:    -4.279      2.325      2.933
REMARK INTER + INTRA:          -6.534
REMARK INTER:                  -6.259
REMARK INTRA:                  -0.275
REMARK UNBOUND:                -0.253
REMARK  Name = 7797
REMARK  9 active torsions:
REMARK  status: ('A' for Active; 'I' for Inactive)
REMARK    1  A    between atoms: O_1  and  C_9
REMARK    2  A    between atoms: O_1  and  C_10
REMARK    3  A    between atoms: C_3  and  C_4
REMARK    4  A    between atoms: C_3  and  C_5
REMARK    5  A    between atoms: C_4  and  C_6
REMARK    6  A    between atoms: C_5  and  C_7
REMARK    7  A    between atoms: C_6  and  C_8
REMARK    8  A    between atoms: C_7  and  C_9
REMARK    9  A    between atoms: C_10  and  C_11
REMARK                            x       y       z     vdW  Elec       q    Type
REMARK                         _______ _______ _______ _____ _____    ______ ____
ROOT
ATOM      1  C   UNL     1       7.192   8.704   0.946  0.00  0.00    +0.000 C 
ATOM      2  H   UNL     1       7.731   9.584   1.322  0.00  0.00    +0.000 HD
ATOM      3  H   UNL     1       7.946   8.046   0.497  0.00  0.00    +0.000 HD
ENDROOT
BRANCH   1   4
ATOM      4  C   UNL     1       6.513   7.981   2.114  0.00  0.00    +0.000 C 
ATOM      5  H   UNL     1       5.439   8.201   2.107  0.00  0.00    +0.000 HD
ATOM      6  H   UNL     1       6.623   6.897   1.986  0.00  0.00    +0.000 HD
BRANCH   4   7
ATOM      7  C   UNL     1       7.118   8.402   3.455  0.00  0.00    +0.000 C 
ATOM      8  H   UNL     1       8.190   8.168   3.465  0.00  0.00    +0.000 HD
ATOM      9  H   UNL     1       7.024   9.490   3.573  0.00  0.00    +0.000 HD
BRANCH   7  10
ATOM     10  C   UNL     1       6.430   7.697   4.622  0.00  0.00    +0.000 C 
ATOM     11  H   UNL     1       6.080   8.437   5.350  0.00  0.00    +0.000 HD
ATOM     12  H   UNL     1       7.145   7.047   5.138  0.00  0.00    +0.000 HD
BRANCH  10  13
ATOM     13  C   UNL     1       5.250   6.861   4.150  0.00  0.00    +0.000 C 
ATOM     14  H   UNL     1       4.655   7.405   3.410  0.00  0.00    +0.000 HD
ATOM     15  H   UNL     1       4.599   6.615   4.994  0.00  0.00    +0.000 HD
ATOM     16  H   UNL     1       5.589   5.925   3.697  0.00  0.00    +0.000 HD
ENDBRANCH  10  13
ENDBRANCH   7  10
ENDBRANCH   4   7
ENDBRANCH   1   4
BRANCH   1  17
ATOM     17  C   UNL     1       6.196   9.140  -0.129  0.00  0.00    +0.000 C 
ATOM     18  H   UNL     1       6.060   8.328  -0.853  0.00  0.00    +0.000 HD
ATOM     19  H   UNL     1       5.230   9.360   0.341  0.00  0.00    +0.000 HD
BRANCH  17  21
ATOM     20  O   UNL     1       7.786  10.793  -0.936  0.00  0.00    +0.000 OA
ATOM     21  C   UNL     1       6.640  10.370  -0.887  0.00  0.00    +0.000 C 
BRANCH  21  22
ATOM     22  O   UNL     1       5.550  10.944  -1.480  0.00  0.00    +0.000 OA
BRANCH  22  23
ATOM     23  C   UNL     1       4.355  10.956  -0.692  0.00  0.00    +0.000 C 
ATOM     24  H   UNL     1       4.245   9.989  -0.189  0.00  0.00    +0.000 HD
ATOM     25  H   UNL     1       4.429  11.746   0.064  0.00  0.00    +0.000 HD
BRANCH  23  26
ATOM     26  C   UNL     1       3.180  11.206  -1.574  0.00  0.00    +0.000 C 
ATOM     27  H   UNL     1       2.528  10.328  -1.624  0.00  0.00    +0.000 HD
ATOM     28  H   UNL     1       2.593  12.056  -1.210  0.00  0.00    +0.000 HD
ATOM     29  H   UNL     1       3.502  11.459  -2.590  0.00  0.00    +0.000 HD
ENDBRANCH  23  26
ENDBRANCH  22  23
ENDBRANCH  21  22
ENDBRANCH  17  21
ENDBRANCH   1  17
TORSDOF 9
ENDMDL
MODEL 7
REMARK VINA RESULT:    -4.258     14.391     15.791
REMARK INTER + INTRA:          -6.502
REMARK INTER:                  -5.879
REMARK INTRA:                  -0.623
REMARK UNBOUND:                -0.253
REMARK  Name = 7797
REMARK  9 active torsions:
REMARK  status: ('A' for Active; 'I' for Inactive)
REMARK    1  A    between atoms: O_1  and  C_9
REMARK    2  A    between atoms: O_1  and  C_10
REMARK    3  A    between atoms: C_3  and  C_4
REMARK    4  A    between atoms: C_3  and  C_5
REMARK    5  A    between atoms: C_4  and  C_6
REMARK    6  A    between atoms: C_5  and  C_7
REMARK    7  A    between atoms: C_6  and  C_8
REMARK    8  A    between atoms: C_7  and  C_9
REMARK    9  A    between atoms: C_10  and  C_11
REMARK                            x       y       z     vdW  Elec       q    Type
REMARK                         _______ _______ _______ _____ _____    ______ ____
ROOT
ATOM      1  C   UNL     1      -1.268  10.068 -10.228  0.00  0.00    +0.000 C 
ATOM      2  H   UNL     1      -1.006  11.022  -9.752  0.00  0.00    +0.000 HD
ATOM      3  H   UNL     1      -0.625   9.306  -9.771  0.00  0.00    +0.000 HD
ENDROOT
BRANCH   1   4
ATOM      4  C   UNL     1      -2.736   9.738  -9.942  0.00  0.00    +0.000 C 
ATOM      5  H   UNL     1      -3.258  10.643  -9.609  0.00  0.00    +0.000 HD
ATOM      6  H   UNL     1      -3.222   9.406 -10.867  0.00  0.00    +0.000 HD
BRANCH   4   7
ATOM      7  C   UNL     1      -2.861   8.647  -8.876  0.00  0.00    +0.000 C 
ATOM      8  H   UNL     1      -1.960   8.637  -8.251  0.00  0.00    +0.000 HD
ATOM      9  H   UNL     1      -3.709   8.874  -8.218  0.00  0.00    +0.000 HD
BRANCH   7  10
ATOM     10  C   UNL     1      -3.058   7.271  -9.510  0.00  0.00    +0.000 C 
ATOM     11  H   UNL     1      -2.145   6.675  -9.397  0.00  0.00    +0.000 HD
ATOM     12  H   UNL     1      -3.244   7.379 -10.585  0.00  0.00    +0.000 HD
BRANCH  10  13
ATOM     13  C   UNL     1      -4.224   6.527  -8.877  0.00  0.00    +0.000 C 
ATOM     14  H   UNL     1      -3.871   5.807  -8.132  0.00  0.00    +0.000 HD
ATOM     15  H   UNL     1      -4.783   5.979  -9.641  0.00  0.00    +0.000 HD
ATOM     16  H   UNL     1      -4.912   7.222  -8.385  0.00  0.00    +0.000 HD
ENDBRANCH  10  13
ENDBRANCH   7  10
ENDBRANCH   4   7
ENDBRANCH   1   4
BRANCH   1  17
ATOM     17  C   UNL     1      -0.969  10.150 -11.725  0.00  0.00    +0.000 C 
ATOM     18  H   UNL     1      -1.736  10.758 -12.219  0.00  0.00    +0.000 HD
ATOM     19  H   UNL     1       0.008  10.626 -11.873  0.00  0.00    +0.000 HD
BRANCH  17  21
ATOM     20  O   UNL     1      -0.350   7.813 -11.983  0.00  0.00    +0.000 OA
ATOM     21  C   UNL     1      -0.940   8.799 -12.402  0.00  0.00    +0.000 C 
BRANCH  21  22
ATOM     22  O   UNL     1      -1.652   8.870 -13.567  0.00  0.00    +0.000 OA
BRANCH  22  23
ATOM     23  C   UNL     1      -3.074   8.799 -13.424  0.00  0.00    +0.000 C 
ATOM     24  H   UNL     1      -3.381   9.398 -12.559  0.00  0.00    +0.000 HD
ATOM     25  H   UNL     1      -3.548   9.204 -14.326  0.00  0.00    +0.000 HD
BRANCH  23  26
ATOM     26  C   UNL     1      -3.484   7.379 -13.229  0.00  0.00    +0.000 C 
ATOM     27  H   UNL     1      -3.914   7.224 -12.235  0.00  0.00    +0.000 HD
ATOM     28  H   UNL     1      -4.224   7.080 -13.979  0.00  0.00    +0.000 HD
ATOM     29  H   UNL     1      -2.628   6.706 -13.347  0.00  0.00    +0.000 HD
ENDBRANCH  23  26
ENDBRANCH  22  23
ENDBRANCH  21  22
ENDBRANCH  17  21
ENDBRANCH   1  17
TORSDOF 9
ENDMDL
MODEL 8
REMARK VINA RESULT:    -4.141     13.250     14.748
REMARK INTER + INTRA:          -6.331
REMARK INTER:                  -6.080
REMARK INTRA:                  -0.251
REMARK UNBOUND:                -0.253
REMARK  Name = 7797
REMARK  9 active torsions:
REMARK  status: ('A' for Active; 'I' for Inactive)
REMARK    1  A    between atoms: O_1  and  C_9
REMARK    2  A    between atoms: O_1  and  C_10
REMARK    3  A    between atoms: C_3  and  C_4
REMARK    4  A    between atoms: C_3  and  C_5
REMARK    5  A    between atoms: C_4  and  C_6
REMARK    6  A    between atoms: C_5  and  C_7
REMARK    7  A    between atoms: C_6  and  C_8
REMARK    8  A    between atoms: C_7  and  C_9
REMARK    9  A    between atoms: C_10  and  C_11
REMARK                            x       y       z     vdW  Elec       q    Type
REMARK                         _______ _______ _______ _____ _____    ______ ____
ROOT
ATOM      1  C   UNL     1      -8.376  10.839   5.485  0.00  0.00    +0.000 C 
ATOM      2  H   UNL     1      -9.361  11.152   5.116  0.00  0.00    +0.000 HD
ATOM      3  H   UNL     1      -8.303   9.760   5.303  0.00  0.00    +0.000 HD
ENDROOT
BRANCH   1   4
ATOM      4  C   UNL     1      -7.280  11.566   4.698  0.00  0.00    +0.000 C 
ATOM      5  H   UNL     1      -6.297  11.298   5.105  0.00  0.00    +0.000 HD
ATOM      6  H   UNL     1      -7.300  11.234   3.653  0.00  0.00    +0.000 HD
BRANCH   4   7
ATOM      7  C   UNL     1      -7.467  13.083   4.759  0.00  0.00    +0.000 C 
ATOM      8  H   UNL     1      -7.690  13.468   3.755  0.00  0.00    +0.000 HD
ATOM      9  H   UNL     1      -8.330  13.320   5.394  0.00  0.00    +0.000 HD
BRANCH   7  10
ATOM     10  C   UNL     1      -6.221  13.776   5.306  0.00  0.00    +0.000 C 
ATOM     11  H   UNL     1      -5.355  13.535   4.679  0.00  0.00    +0.000 HD
ATOM     12  H   UNL     1      -6.003  13.408   6.315  0.00  0.00    +0.000 HD
BRANCH  10  13
ATOM     13  C   UNL     1      -6.399  15.285   5.356  0.00  0.00    +0.000 C 
ATOM     14  H   UNL     1      -6.390  15.647   6.389  0.00  0.00    +0.000 HD
ATOM     15  H   UNL     1      -7.355  15.569   4.905  0.00  0.00    +0.000 HD
ATOM     16  H   UNL     1      -5.600  15.793   4.808  0.00  0.00    +0.000 HD
ENDBRANCH  10  13
ENDBRANCH   7  10
ENDBRANCH   4   7
ENDBRANCH   1   4
BRANCH   1  17
ATOM     17  C   UNL     1      -8.289  11.105   6.988  0.00  0.00    +0.000 C 
ATOM     18  H   UNL     1      -7.240  11.079   7.305  0.00  0.00    +0.000 HD
ATOM     19  H   UNL     1      -8.698  12.100   7.203  0.00  0.00    +0.000 HD
BRANCH  17  21
ATOM     20  O   UNL     1     -10.015   9.451   7.430  0.00  0.00    +0.000 OA
ATOM     21  C   UNL     1      -9.051  10.096   7.817  0.00  0.00    +0.000 C 
BRANCH  21  22
ATOM     22  O   UNL     1      -8.506  10.048   9.069  0.00  0.00    +0.000 OA
BRANCH  22  23
ATOM     23  C   UNL     1      -7.852   8.821   9.409  0.00  0.00    +0.000 C 
ATOM     24  H   UNL     1      -7.926   8.126   8.565  0.00  0.00    +0.000 HD
ATOM     25  H   UNL     1      -6.794   9.021   9.616  0.00  0.00    +0.000 HD
BRANCH  23  26
ATOM     26  C   UNL     1      -8.501   8.228  10.613  0.00  0.00    +0.000 C 
ATOM     27  H   UNL     1      -7.898   7.417  11.030  0.00  0.00    +0.000 HD
ATOM     28  H   UNL     1      -8.650   8.987  11.389  0.00  0.00    +0.000 HD
ATOM     29  H   UNL     1      -9.493   7.834  10.366  0.00  0.00    +0.000 HD
ENDBRANCH  23  26
ENDBRANCH  22  23
ENDBRANCH  21  22
ENDBRANCH  17  21
ENDBRANCH   1  17
TORSDOF 9
ENDMDL
MODEL 9
REMARK VINA RESULT:    -4.056     14.019     15.576
REMARK INTER + INTRA:          -6.206
REMARK INTER:                  -5.743
REMARK INTRA:                  -0.463
REMARK UNBOUND:                -0.253
REMARK  Name = 7797
REMARK  9 active torsions:
REMARK  status: ('A' for Active; 'I' for Inactive)
REMARK    1  A    between atoms: O_1  and  C_9
REMARK    2  A    between atoms: O_1  and  C_10
REMARK    3  A    between atoms: C_3  and  C_4
REMARK    4  A    between atoms: C_3  and  C_5
REMARK    5  A    between atoms: C_4  and  C_6
REMARK    6  A    between atoms: C_5  and  C_7
REMARK    7  A    between atoms: C_6  and  C_8
REMARK    8  A    between atoms: C_7  and  C_9
REMARK    9  A    between atoms: C_10  and  C_11
REMARK                            x       y       z     vdW  Elec       q    Type
REMARK                         _______ _______ _______ _____ _____    ______ ____
ROOT
ATOM      1  C   UNL     1      -8.330  10.991   6.834  0.00  0.00    +0.000 C 
ATOM      2  H   UNL     1      -7.254  10.938   7.049  0.00  0.00    +0.000 HD
ATOM      3  H   UNL     1      -8.715  11.857   7.387  0.00  0.00    +0.000 HD
ENDROOT
BRANCH   1   4
ATOM      4  C   UNL     1      -8.543  11.207   5.333  0.00  0.00    +0.000 C 
ATOM      5  H   UNL     1      -8.979  10.303   4.890  0.00  0.00    +0.000 HD
ATOM      6  H   UNL     1      -9.261  12.021   5.179  0.00  0.00    +0.000 HD
BRANCH   4   7
ATOM      7  C   UNL     1      -7.227  11.544   4.628  0.00  0.00    +0.000 C 
ATOM      8  H   UNL     1      -6.478  10.776   4.859  0.00  0.00    +0.000 HD
ATOM      9  H   UNL     1      -7.380  11.529   3.541  0.00  0.00    +0.000 HD
BRANCH   7  10
ATOM     10  C   UNL     1      -6.704  12.914   5.055  0.00  0.00    +0.000 C 
ATOM     11  H   UNL     1      -5.748  13.118   4.559  0.00  0.00    +0.000 HD
ATOM     12  H   UNL     1      -6.517  12.921   6.135  0.00  0.00    +0.000 HD
BRANCH  10  13
ATOM     13  C   UNL     1      -7.691  14.019   4.714  0.00  0.00    +0.000 C 
ATOM     14  H   UNL     1      -8.566  13.979   5.371  0.00  0.00    +0.000 HD
ATOM     15  H   UNL     1      -8.037  13.913   3.681  0.00  0.00    +0.000 HD
ATOM     16  H   UNL     1      -7.228  15.005   4.818  0.00  0.00    +0.000 HD
ENDBRANCH  10  13
ENDBRANCH   7  10
ENDBRANCH   4   7
ENDBRANCH   1   4
BRANCH   1  17
ATOM     17  C   UNL     1      -9.012   9.722   7.345  0.00  0.00    +0.000 C 
ATOM     18  H   UNL     1      -9.086   8.993   6.529  0.00  0.00    +0.000 HD
ATOM     19  H   UNL     1      -8.410   9.288   8.152  0.00  0.00    +0.000 HD
BRANCH  17  21
ATOM     20  O   UNL     1     -10.667  10.462   8.965  0.00  0.00    +0.000 OA
ATOM     21  C   UNL     1     -10.405   9.967   7.878  0.00  0.00    +0.000 C 
BRANCH  21  22
ATOM     22  O   UNL     1     -11.316   9.518   6.963  0.00  0.00    +0.000 OA
BRANCH  22  23
ATOM     23  C   UNL     1     -12.450  10.366   6.756  0.00  0.00    +0.000 C 
ATOM     24  H   UNL     1     -13.268   9.778   6.325  0.00  0.00    +0.000 HD
ATOM     25  H   UNL     1     -12.774  10.778   7.719  0.00  0.00    +0.000 HD
BRANCH  23  26
ATOM     26  C   UNL     1     -12.080  11.474   5.830  0.00  0.00    +0.000 C 
ATOM     27  H   UNL     1     -11.925  11.104   4.812  0.00  0.00    +0.000 HD
ATOM     28  H   UNL     1     -12.862  12.241   5.807  0.00  0.00    +0.000 HD
ATOM     29  H   UNL     1     -11.163  11.971   6.163  0.00  0.00    +0.000 HD
ENDBRANCH  23  26
ENDBRANCH  22  23
ENDBRANCH  21  22
ENDBRANCH  17  21
ENDBRANCH   1  17
TORSDOF 9
ENDMDL
MODEL 10
REMARK VINA RESULT:    -3.971     14.856     16.340
REMARK INTER + INTRA:          -6.082
REMARK INTER:                  -5.828
REMARK INTRA:                  -0.253
REMARK UNBOUND:                -0.253
REMARK  Name = 7797
REMARK  9 active torsions:
REMARK  status: ('A' for Active; 'I' for Inactive)
REMARK    1  A    between atoms: O_1  and  C_9
REMARK    2  A    between atoms: O_1  and  C_10
REMARK    3  A    between atoms: C_3  and  C_4
REMARK    4  A    between atoms: C_3  and  C_5
REMARK    5  A    between atoms: C_4  and  C_6
REMARK    6  A    between atoms: C_5  and  C_7
REMARK    7  A    between atoms: C_6  and  C_8
REMARK    8  A    between atoms: C_7  and  C_9
REMARK    9  A    between atoms: C_10  and  C_11
REMARK                            x       y       z     vdW  Elec       q    Type
REMARK                         _______ _______ _______ _____ _____    ______ ____
ROOT
ATOM      1  C   UNL     1      -1.150   8.970 -11.474  0.00  0.00    +0.000 C 
ATOM      2  H   UNL     1      -0.323   8.304 -11.194  0.00  0.00    +0.000 HD
ATOM      3  H   UNL     1      -1.984   8.322 -11.770  0.00  0.00    +0.000 HD
ENDROOT
BRANCH   1   4
ATOM      4  C   UNL     1      -1.561   9.815 -10.264  0.00  0.00    +0.000 C 
ATOM      5  H   UNL     1      -0.665  10.160  -9.736  0.00  0.00    +0.000 HD
ATOM      6  H   UNL     1      -2.100  10.706 -10.608  0.00  0.00    +0.000 HD
BRANCH   4   7
ATOM      7  C   UNL     1      -2.450   9.017  -9.308  0.00  0.00    +0.000 C 
ATOM      8  H   UNL     1      -1.910   8.830  -8.371  0.00  0.00    +0.000 HD
ATOM      9  H   UNL     1      -3.339   9.609  -9.054  0.00  0.00    +0.000 HD
BRANCH   7  10
ATOM     10  C   UNL     1      -2.878   7.687  -9.925  0.00  0.00    +0.000 C 
ATOM     11  H   UNL     1      -2.008   7.182 -10.361  0.00  0.00    +0.000 HD
ATOM     12  H   UNL     1      -3.591   7.865 -10.738  0.00  0.00    +0.000 HD
BRANCH  10  13
ATOM     13  C   UNL     1      -3.520   6.774  -8.892  0.00  0.00    +0.000 C 
ATOM     14  H   UNL     1      -3.630   7.286  -7.931  0.00  0.00    +0.000 HD
ATOM     15  H   UNL     1      -2.902   5.885  -8.735  0.00  0.00    +0.000 HD
ATOM     16  H   UNL     1      -4.511   6.446  -9.221  0.00  0.00    +0.000 HD
ENDBRANCH  10  13
ENDBRANCH   7  10
ENDBRANCH   4   7
ENDBRANCH   1   4
BRANCH   1  17
ATOM     17  C   UNL     1      -0.728   9.827 -12.668  0.00  0.00    +0.000 C 
ATOM     18  H   UNL     1      -1.561  10.474 -12.967  0.00  0.00    +0.000 HD
ATOM     19  H   UNL     1       0.122  10.456 -12.379  0.00  0.00    +0.000 HD
BRANCH  17  21
ATOM     20  O   UNL     1      -0.929   8.045 -14.311  0.00  0.00    +0.000 OA
ATOM     21  C   UNL     1      -0.318   9.010 -13.873  0.00  0.00    +0.000 C 
BRANCH  21  22
ATOM     22  O   UNL     1       0.855   9.506 -14.368  0.00  0.00    +0.000 OA
BRANCH  22  23
ATOM     23  C   UNL     1       0.863   9.783 -15.772  0.00  0.00    +0.000 C 
ATOM     24  H   UNL     1       1.486   9.041 -16.283  0.00  0.00    +0.000 HD
ATOM     25  H   UNL     1      -0.161   9.719 -16.158  0.00  0.00    +0.000 HD
BRANCH  23  26
ATOM     26  C   UNL     1       1.409  11.150 -16.006  0.00  0.00    +0.000 C 
ATOM     27  H   UNL     1       0.780  11.714 -16.702  0.00  0.00    +0.000 HD
ATOM     28  H   UNL     1       1.477  11.709 -15.066  0.00  0.00    +0.000 HD
ATOM     29  H   UNL     1       2.424  11.100 -16.415  0.00  0.00    +0.000 HD
ENDBRANCH  23  26
ENDBRANCH  22  23
ENDBRANCH  21  22
ENDBRANCH  17  21
ENDBRANCH   1  17
TORSDOF 9
ENDMDL
