MODEL 1
REMARK VINA RESULT:    -5.741      0.000      0.000
REMARK INTER + INTRA:         -11.973
REMARK INTER:                 -10.538
REMARK INTRA:                  -1.435
REMARK UNBOUND:                -1.365
REMARK  Name = 10390702
REMARK  19 active torsions:
REMARK  status: ('A' for Active; 'I' for Inactive)
REMARK    1  A    between atoms: O_3  and  C_26
REMARK    2  A    between atoms: O_4  and  C_27
REMARK    3  A    between atoms: O_5  and  C_33
REMARK    4  A    between atoms: C_8  and  C_11
REMARK    5  A    between atoms: C_9  and  C_14
REMARK    6  A    between atoms: C_9  and  C_15
REMARK    7  A    between atoms: C_10  and  C_13
REMARK    8  A    between atoms: C_12  and  C_18
REMARK    9  A    between atoms: C_12  and  C_20
REMARK   10  A    between atoms: C_13  and  C_21
REMARK   11  A    between atoms: C_18  and  C_22
REMARK   12  A    between atoms: C_18  and  C_23
REMARK   13  A    between atoms: C_21  and  C_25
REMARK   14  A    between atoms: C_22  and  C_24
REMARK   15  A    between atoms: C_24  and  C_28
REMARK   16  A    between atoms: C_24  and  C_29
REMARK   17  A    between atoms: C_25  and  C_30
REMARK   18  A    between atoms: C_31  and  C_35
REMARK   19  A    between atoms: C_32  and  C_34
REMARK                            x       y       z     vdW  Elec       q    Type
REMARK                         _______ _______ _______ _____ _____    ______ ____
ROOT
ATOM      1  O   UNL     1      -2.683   7.904  -9.684  0.00  0.00    +0.000 OA
ATOM      2  C   UNL     1      -2.512   8.587 -12.009  0.00  0.00    +0.000 C 
ATOM      3  C   UNL     1      -1.360   9.430 -12.616  0.00  0.00    +0.000 C 
ATOM      4  C   UNL     1      -1.121  10.494 -11.523  0.00  0.00    +0.000 C 
ATOM      5  C   UNL     1      -2.200   8.652 -10.526  0.00  0.00    +0.000 C 
ATOM      6  C   UNL     1      -1.220   9.747 -10.198  0.00  0.00    +0.000 C 
ATOM      7  H   UNL     1      -3.428   9.170 -12.083  0.00  0.00    +0.000 HD
ATOM      8  H   UNL     1      -0.116  10.901 -11.464  0.00  0.00    +0.000 HD
ATOM      9  H   UNL     1      -1.850  11.299 -11.436  0.00  0.00    +0.000 HD
ATOM     10  H   UNL     1      -0.266   9.294  -9.910  0.00  0.00    +0.000 HD
ATOM     11  H   UNL     1      -1.599  10.384  -9.396  0.00  0.00    +0.000 HD
ENDROOT
BRANCH   2  12
ATOM     12  C   UNL     1      -2.652   7.193 -12.535  0.00  0.00    +0.000 C 
ATOM     13  C   UNL     1      -3.546   6.904 -13.705  0.00  0.00    +0.000 C 
ATOM     14  C   UNL     1      -3.947   6.466 -12.328  0.00  0.00    +0.000 C 
ATOM     15  H   UNL     1      -1.771   6.582 -12.386  0.00  0.00    +0.000 HD
ATOM     16  H   UNL     1      -3.885   5.413 -12.076  0.00  0.00    +0.000 HD
BRANCH  13  17
ATOM     17  C   UNL     1      -4.250   8.059 -14.333  0.00  0.00    +0.000 C 
ATOM     18  H   UNL     1      -4.972   7.675 -15.064  0.00  0.00    +0.000 HD
ATOM     19  H   UNL     1      -4.825   8.727 -13.693  0.00  0.00    +0.000 HD
ATOM     20  H   UNL     1      -3.538   8.663 -14.901  0.00  0.00    +0.000 HD
ENDBRANCH  13  17
BRANCH  13  21
ATOM     21  C   UNL     1      -3.147   5.844 -14.675  0.00  0.00    +0.000 C 
ATOM     22  H   UNL     1      -4.003   5.534 -15.283  0.00  0.00    +0.000 HD
ATOM     23  H   UNL     1      -2.364   6.212 -15.348  0.00  0.00    +0.000 HD
ATOM     24  H   UNL     1      -2.756   4.951 -14.175  0.00  0.00    +0.000 HD
ENDBRANCH  13  21
BRANCH  14  25
ATOM     25  C   UNL     1      -5.047   7.155 -11.607  0.00  0.00    +0.000 C 
ATOM     26  H   UNL     1      -5.357   8.127 -11.995  0.00  0.00    +0.000 HD
ATOM     27  H   UNL     1      -4.745   7.278 -10.566  0.00  0.00    +0.000 HD
BRANCH  25  28
ATOM     28  C   UNL     1      -6.274   6.255 -11.427  0.00  0.00    +0.000 C 
ATOM     29  H   UNL     1      -7.127   6.684 -11.963  0.00  0.00    +0.000 HD
ATOM     30  H   UNL     1      -6.078   5.261 -11.844  0.00  0.00    +0.000 HD
BRANCH  28  32
ATOM     31  O   UNL     1      -7.851   6.040  -9.607  0.00  0.00    +0.000 OA
ATOM     32  C   UNL     1      -6.678   6.087  -9.973  0.00  0.00    +0.000 C 
BRANCH  32  33
ATOM     33  C   UNL     1      -5.550   5.980  -8.980  0.00  0.00    +0.000 C 
ATOM     34  H   UNL     1      -5.220   4.940  -8.911  0.00  0.00    +0.000 HD
ATOM     35  H   UNL     1      -5.887   6.336  -8.002  0.00  0.00    +0.000 HD
ATOM     36  H   UNL     1      -4.708   6.596  -9.309  0.00  0.00    +0.000 HD
ENDBRANCH  32  33
ENDBRANCH  28  32
ENDBRANCH  25  28
ENDBRANCH  14  25
ENDBRANCH   2  12
BRANCH   3  37
ATOM     37  C   UNL     1      -0.067   8.629 -12.865  0.00  0.00    +0.000 C 
ATOM     38  H   UNL     1       0.021   7.753 -12.213  0.00  0.00    +0.000 HD
ATOM     39  H   UNL     1       0.090   8.323 -13.903  0.00  0.00    +0.000 HD
ATOM     40  H   UNL     1       0.809   9.252 -12.642  0.00  0.00    +0.000 HD
ENDBRANCH   3  37
BRANCH   3  41
ATOM     41  C   UNL     1      -1.788  10.099 -13.929  0.00  0.00    +0.000 C 
ATOM     42  H   UNL     1      -2.411   9.380 -14.462  0.00  0.00    +0.000 HD
BRANCH  41  43
ATOM     43  C   UNL     1      -0.571  10.405 -14.785  0.00  0.00    +0.000 A 
ATOM     44  C   UNL     1       0.151  11.581 -14.577  0.00  0.00    +0.000 A 
ATOM     45  C   UNL     1      -0.176   9.511 -15.781  0.00  0.00    +0.000 A 
ATOM     46  C   UNL     1       1.268  11.861 -15.363  0.00  0.00    +0.000 A 
ATOM     47  C   UNL     1       0.941   9.793 -16.568  0.00  0.00    +0.000 A 
ATOM     48  C   UNL     1       1.663  10.967 -16.358  0.00  0.00    +0.000 A 
BRANCH  46  50
ATOM     49  O   UNL     1       3.177  13.098 -14.711  0.00  0.00    +0.000 OA
ATOM     50  C   UNL     1       2.024  13.090 -15.144  0.00  0.00    +0.000 C 
ATOM     51  H   UNL     1       1.530  14.042 -15.395  0.00  0.00    +0.000 HD
ENDBRANCH  46  50
BRANCH  47  53
ATOM     52  O   UNL     1       0.600   8.484 -18.509  0.00  0.00    +0.000 OA
ATOM     53  C   UNL     1       1.354   8.858 -17.609  0.00  0.00    +0.000 C 
ATOM     54  H   UNL     1       2.387   8.479 -17.573  0.00  0.00    +0.000 HD
ENDBRANCH  47  53
BRANCH  48  55
ATOM     55  O   UNL     1       2.757  11.243 -17.128  0.00  0.00    +0.000 OA
ATOM     56  H   UNL     1       2.491  11.370 -18.053  0.00  0.00    +0.000 HD
ENDBRANCH  48  55
BRANCH  45  57
ATOM     57  O   UNL     1      -0.885   8.363 -15.983  0.00  0.00    +0.000 OA
ATOM     58  H   UNL     1      -1.834   8.545 -16.055  0.00  0.00    +0.000 HD
ENDBRANCH  45  57
BRANCH  44  59
ATOM     59  O   UNL     1      -0.238  12.451 -13.601  0.00  0.00    +0.000 OA
ATOM     60  H   UNL     1      -1.181  12.670 -13.686  0.00  0.00    +0.000 HD
ENDBRANCH  44  59
ENDBRANCH  41  43
BRANCH  41  61
ATOM     61  C   UNL     1      -2.656  11.345 -13.633  0.00  0.00    +0.000 C 
ATOM     62  H   UNL     1      -3.207  11.209 -12.695  0.00  0.00    +0.000 HD
ATOM     63  H   UNL     1      -2.060  12.255 -13.531  0.00  0.00    +0.000 HD
BRANCH  61  64
ATOM     64  C   UNL     1      -3.696  11.701 -14.717  0.00  0.00    +0.000 C 
ATOM     65  H   UNL     1      -3.702  10.917 -15.484  0.00  0.00    +0.000 HD
BRANCH  64  66
ATOM     66  C   UNL     1      -5.110  11.827 -14.150  0.00  0.00    +0.000 C 
ATOM     67  H   UNL     1      -5.441  12.867 -14.110  0.00  0.00    +0.000 HD
ATOM     68  H   UNL     1      -5.147  11.445 -13.123  0.00  0.00    +0.000 HD
ATOM     69  H   UNL     1      -5.827  11.250 -14.742  0.00  0.00    +0.000 HD
ENDBRANCH  64  66
BRANCH  64  70
ATOM     70  C   UNL     1      -3.298  13.013 -15.400  0.00  0.00    +0.000 C 
ATOM     71  H   UNL     1      -2.978  13.762 -14.668  0.00  0.00    +0.000 HD
ATOM     72  H   UNL     1      -4.139  13.428 -15.965  0.00  0.00    +0.000 HD
ATOM     73  H   UNL     1      -2.474  12.853 -16.104  0.00  0.00    +0.000 HD
ENDBRANCH  64  70
ENDBRANCH  61  64
ENDBRANCH  41  61
ENDBRANCH   3  41
TORSDOF 19
ENDMDL
MODEL 2
REMARK VINA RESULT:    -5.725      0.061      2.405
REMARK INTER + INTRA:         -11.944
REMARK INTER:                 -10.542
REMARK INTRA:                  -1.402
REMARK UNBOUND:                -1.365
REMARK  Name = 10390702
REMARK  19 active torsions:
REMARK  status: ('A' for Active; 'I' for Inactive)
REMARK    1  A    between atoms: O_3  and  C_26
REMARK    2  A    between atoms: O_4  and  C_27
REMARK    3  A    between atoms: O_5  and  C_33
REMARK    4  A    between atoms: C_8  and  C_11
REMARK    5  A    between atoms: C_9  and  C_14
REMARK    6  A    between atoms: C_9  and  C_15
REMARK    7  A    between atoms: C_10  and  C_13
REMARK    8  A    between atoms: C_12  and  C_18
REMARK    9  A    between atoms: C_12  and  C_20
REMARK   10  A    between atoms: C_13  and  C_21
REMARK   11  A    between atoms: C_18  and  C_22
REMARK   12  A    between atoms: C_18  and  C_23
REMARK   13  A    between atoms: C_21  and  C_25
REMARK   14  A    between atoms: C_22  and  C_24
REMARK   15  A    between atoms: C_24  and  C_28
REMARK   16  A    between atoms: C_24  and  C_29
REMARK   17  A    between atoms: C_25  and  C_30
REMARK   18  A    between atoms: C_31  and  C_35
REMARK   19  A    between atoms: C_32  and  C_34
REMARK                            x       y       z     vdW  Elec       q    Type
REMARK                         _______ _______ _______ _____ _____    ______ ____
ROOT
ATOM      1  O   UNL     1      -2.732   7.907  -9.732  0.00  0.00    +0.000 OA
ATOM      2  C   UNL     1      -2.551   8.585 -12.058  0.00  0.00    +0.000 C 
ATOM      3  C   UNL     1      -1.392   9.419 -12.664  0.00  0.00    +0.000 C 
ATOM      4  C   UNL     1      -1.147  10.482 -11.572  0.00  0.00    +0.000 C 
ATOM      5  C   UNL     1      -2.242   8.649 -10.574  0.00  0.00    +0.000 C 
ATOM      6  C   UNL     1      -1.254   9.738 -10.246  0.00  0.00    +0.000 C 
ATOM      7  H   UNL     1      -3.464   9.175 -12.134  0.00  0.00    +0.000 HD
ATOM      8  H   UNL     1      -0.139  10.883 -11.512  0.00  0.00    +0.000 HD
ATOM      9  H   UNL     1      -1.871  11.293 -11.487  0.00  0.00    +0.000 HD
ATOM     10  H   UNL     1      -0.304   9.278  -9.956  0.00  0.00    +0.000 HD
ATOM     11  H   UNL     1      -1.629  10.378  -9.445  0.00  0.00    +0.000 HD
ENDROOT
BRANCH   2  12
ATOM     12  C   UNL     1      -2.701   7.192 -12.582  0.00  0.00    +0.000 C 
ATOM     13  C   UNL     1      -3.604   6.906 -13.746  0.00  0.00    +0.000 C 
ATOM     14  C   UNL     1      -3.998   6.470 -12.366  0.00  0.00    +0.000 C 
ATOM     15  H   UNL     1      -1.822   6.577 -12.440  0.00  0.00    +0.000 HD
ATOM     16  H   UNL     1      -3.938   5.417 -12.114  0.00  0.00    +0.000 HD
BRANCH  13  17
ATOM     17  C   UNL     1      -4.308   8.064 -14.369  0.00  0.00    +0.000 C 
ATOM     18  H   UNL     1      -4.683   7.759 -15.354  0.00  0.00    +0.000 HD
ATOM     19  H   UNL     1      -5.172   8.484 -13.856  0.00  0.00    +0.000 HD
ATOM     20  H   UNL     1      -3.598   8.873 -14.555  0.00  0.00    +0.000 HD
ENDBRANCH  13  17
BRANCH  13  21
ATOM     21  C   UNL     1      -3.217   5.845 -14.719  0.00  0.00    +0.000 C 
ATOM     22  H   UNL     1      -3.477   6.143 -15.740  0.00  0.00    +0.000 HD
ATOM     23  H   UNL     1      -2.137   5.661 -14.679  0.00  0.00    +0.000 HD
ATOM     24  H   UNL     1      -3.719   4.892 -14.514  0.00  0.00    +0.000 HD
ENDBRANCH  13  21
BRANCH  14  25
ATOM     25  C   UNL     1      -5.090   7.164 -11.637  0.00  0.00    +0.000 C 
ATOM     26  H   UNL     1      -5.391   8.142 -12.016  0.00  0.00    +0.000 HD
ATOM     27  H   UNL     1      -4.785   7.276 -10.596  0.00  0.00    +0.000 HD
BRANCH  25  28
ATOM     28  C   UNL     1      -6.325   6.275 -11.462  0.00  0.00    +0.000 C 
ATOM     29  H   UNL     1      -7.183   6.734 -11.965  0.00  0.00    +0.000 HD
ATOM     30  H   UNL     1      -6.151   5.293 -11.917  0.00  0.00    +0.000 HD
BRANCH  28  32
ATOM     31  O   UNL     1      -7.865   5.924  -9.631  0.00  0.00    +0.000 OA
ATOM     32  C   UNL     1      -6.701   6.062 -10.006  0.00  0.00    +0.000 C 
BRANCH  32  33
ATOM     33  C   UNL     1      -5.559   6.029  -9.025  0.00  0.00    +0.000 C 
ATOM     34  H   UNL     1      -4.674   5.606  -9.507  0.00  0.00    +0.000 HD
ATOM     35  H   UNL     1      -5.840   5.427  -8.156  0.00  0.00    +0.000 HD
ATOM     36  H   UNL     1      -5.329   7.045  -8.691  0.00  0.00    +0.000 HD
ENDBRANCH  32  33
ENDBRANCH  28  32
ENDBRANCH  25  28
ENDBRANCH  14  25
ENDBRANCH   2  12
BRANCH   3  37
ATOM     37  C   UNL     1      -0.105   8.608 -12.910  0.00  0.00    +0.000 C 
ATOM     38  H   UNL     1      -0.301   7.541 -13.069  0.00  0.00    +0.000 HD
ATOM     39  H   UNL     1       0.526   8.984 -13.720  0.00  0.00    +0.000 HD
ATOM     40  H   UNL     1       0.545   8.660 -12.027  0.00  0.00    +0.000 HD
ENDBRANCH   3  37
BRANCH   3  41
ATOM     41  C   UNL     1      -1.813  10.090 -13.978  0.00  0.00    +0.000 C 
ATOM     42  H   UNL     1      -2.434   9.371 -14.516  0.00  0.00    +0.000 HD
BRANCH  41  43
ATOM     43  C   UNL     1      -0.592  10.397 -14.827  0.00  0.00    +0.000 A 
ATOM     44  C   UNL     1      -0.202   9.512 -15.834  0.00  0.00    +0.000 A 
ATOM     45  C   UNL     1       0.140  11.563 -14.602  0.00  0.00    +0.000 A 
ATOM     46  C   UNL     1       0.919   9.795 -16.615  0.00  0.00    +0.000 A 
ATOM     47  C   UNL     1       1.261  11.845 -15.382  0.00  0.00    +0.000 A 
ATOM     48  C   UNL     1       1.650  10.961 -16.389  0.00  0.00    +0.000 A 
BRANCH  46  50
ATOM     49  O   UNL     1       0.570   8.510 -18.570  0.00  0.00    +0.000 OA
ATOM     50  C   UNL     1       1.326   8.871 -17.667  0.00  0.00    +0.000 C 
ATOM     51  H   UNL     1       2.363   8.498 -17.643  0.00  0.00    +0.000 HD
ENDBRANCH  46  50
BRANCH  47  53
ATOM     52  O   UNL     1       3.189  13.057 -14.740  0.00  0.00    +0.000 OA
ATOM     53  C   UNL     1       2.025  13.064 -15.146  0.00  0.00    +0.000 C 
ATOM     54  H   UNL     1       1.526  14.026 -15.343  0.00  0.00    +0.000 HD
ENDBRANCH  47  53
BRANCH  48  55
ATOM     55  O   UNL     1       2.747  11.237 -17.153  0.00  0.00    +0.000 OA
ATOM     56  H   UNL     1       2.901  10.521 -17.789  0.00  0.00    +0.000 HD
ENDBRANCH  48  55
BRANCH  45  57
ATOM     57  O   UNL     1      -0.244  12.425 -13.617  0.00  0.00    +0.000 OA
ATOM     58  H   UNL     1      -0.813  13.127 -13.967  0.00  0.00    +0.000 HD
ENDBRANCH  45  57
BRANCH  44  59
ATOM     59  O   UNL     1      -0.921   8.374 -16.051  0.00  0.00    +0.000 OA
ATOM     60  H   UNL     1      -0.749   7.716 -15.359  0.00  0.00    +0.000 HD
ENDBRANCH  44  59
ENDBRANCH  41  43
BRANCH  41  61
ATOM     61  C   UNL     1      -2.683  11.335 -13.685  0.00  0.00    +0.000 C 
ATOM     62  H   UNL     1      -3.228  11.204 -12.743  0.00  0.00    +0.000 HD
ATOM     63  H   UNL     1      -2.089  12.248 -13.593  0.00  0.00    +0.000 HD
BRANCH  61  64
ATOM     64  C   UNL     1      -3.730  11.681 -14.766  0.00  0.00    +0.000 C 
ATOM     65  H   UNL     1      -3.726  10.902 -15.537  0.00  0.00    +0.000 HD
BRANCH  64  66
ATOM     66  C   UNL     1      -5.145  11.784 -14.196  0.00  0.00    +0.000 C 
ATOM     67  H   UNL     1      -5.534  10.809 -13.893  0.00  0.00    +0.000 HD
ATOM     68  H   UNL     1      -5.835  12.177 -14.951  0.00  0.00    +0.000 HD
ATOM     69  H   UNL     1      -5.177  12.460 -13.336  0.00  0.00    +0.000 HD
ENDBRANCH  64  66
BRANCH  64  70
ATOM     70  C   UNL     1      -3.352  13.003 -15.443  0.00  0.00    +0.000 C 
ATOM     71  H   UNL     1      -3.484  12.946 -16.529  0.00  0.00    +0.000 HD
ATOM     72  H   UNL     1      -2.307  13.258 -15.241  0.00  0.00    +0.000 HD
ATOM     73  H   UNL     1      -3.973  13.825 -15.069  0.00  0.00    +0.000 HD
ENDBRANCH  64  70
ENDBRANCH  61  64
ENDBRANCH  41  61
ENDBRANCH   3  41
TORSDOF 19
ENDMDL
MODEL 3
REMARK VINA RESULT:    -5.623     20.688     24.311
REMARK INTER + INTRA:         -11.754
REMARK INTER:                 -10.208
REMARK INTRA:                  -1.546
REMARK UNBOUND:                -1.365
REMARK  Name = 10390702
REMARK  19 active torsions:
REMARK  status: ('A' for Active; 'I' for Inactive)
REMARK    1  A    between atoms: O_3  and  C_26
REMARK    2  A    between atoms: O_4  and  C_27
REMARK    3  A    between atoms: O_5  and  C_33
REMARK    4  A    between atoms: C_8  and  C_11
REMARK    5  A    between atoms: C_9  and  C_14
REMARK    6  A    between atoms: C_9  and  C_15
REMARK    7  A    between atoms: C_10  and  C_13
REMARK    8  A    between atoms: C_12  and  C_18
REMARK    9  A    between atoms: C_12  and  C_20
REMARK   10  A    between atoms: C_13  and  C_21
REMARK   11  A    between atoms: C_18  and  C_22
REMARK   12  A    between atoms: C_18  and  C_23
REMARK   13  A    between atoms: C_21  and  C_25
REMARK   14  A    between atoms: C_22  and  C_24
REMARK   15  A    between atoms: C_24  and  C_28
REMARK   16  A    between atoms: C_24  and  C_29
REMARK   17  A    between atoms: C_25  and  C_30
REMARK   18  A    between atoms: C_31  and  C_35
REMARK   19  A    between atoms: C_32  and  C_34
REMARK                            x       y       z     vdW  Elec       q    Type
REMARK                         _______ _______ _______ _____ _____    ______ ____
ROOT
ATOM      1  O   UNL     1      13.945  15.922   1.431  0.00  0.00    +0.000 OA
ATOM      2  C   UNL     1      13.383  14.050   2.873  0.00  0.00    +0.000 C 
ATOM      3  C   UNL     1      12.576  14.144   4.195  0.00  0.00    +0.000 C 
ATOM      4  C   UNL     1      13.158  15.418   4.845  0.00  0.00    +0.000 C 
ATOM      5  C   UNL     1      13.596  15.512   2.531  0.00  0.00    +0.000 C 
ATOM      6  C   UNL     1      13.327  16.417   3.706  0.00  0.00    +0.000 C 
ATOM      7  H   UNL     1      14.390  13.716   3.119  0.00  0.00    +0.000 HD
ATOM      8  H   UNL     1      12.493  15.963   5.509  0.00  0.00    +0.000 HD
ATOM      9  H   UNL     1      14.149  15.347   5.293  0.00  0.00    +0.000 HD
ATOM     10  H   UNL     1      12.409  16.982   3.515  0.00  0.00    +0.000 HD
ATOM     11  H   UNL     1      14.165  17.096   3.877  0.00  0.00    +0.000 HD
ENDROOT
BRANCH   2  12
ATOM     12  C   UNL     1      12.748  13.261   1.773  0.00  0.00    +0.000 C 
ATOM     13  C   UNL     1      13.063  11.804   1.597  0.00  0.00    +0.000 C 
ATOM     14  C   UNL     1      13.597  12.809   0.620  0.00  0.00    +0.000 C 
ATOM     15  H   UNL     1      11.768  13.622   1.487  0.00  0.00    +0.000 HD
ATOM     16  H   UNL     1      13.153  12.864  -0.368  0.00  0.00    +0.000 HD
BRANCH  13  17
ATOM     17  C   UNL     1      13.996  11.181   2.580  0.00  0.00    +0.000 C 
ATOM     18  H   UNL     1      13.585  10.212   2.889  0.00  0.00    +0.000 HD
ATOM     19  H   UNL     1      15.016  10.967   2.264  0.00  0.00    +0.000 HD
ATOM     20  H   UNL     1      14.042  11.790   3.485  0.00  0.00    +0.000 HD
ENDBRANCH  13  17
BRANCH  13  21
ATOM     21  C   UNL     1      11.990  10.885   1.121  0.00  0.00    +0.000 C 
ATOM     22  H   UNL     1      12.377  10.202   0.358  0.00  0.00    +0.000 HD
ATOM     23  H   UNL     1      11.599  10.285   1.951  0.00  0.00    +0.000 HD
ATOM     24  H   UNL     1      11.144  11.427   0.682  0.00  0.00    +0.000 HD
ENDBRANCH  13  21
BRANCH  14  25
ATOM     25  C   UNL     1      15.039  13.163   0.612  0.00  0.00    +0.000 C 
ATOM     26  H   UNL     1      15.618  12.884   1.494  0.00  0.00    +0.000 HD
ATOM     27  H   UNL     1      15.122  14.241   0.471  0.00  0.00    +0.000 HD
BRANCH  25  28
ATOM     28  C   UNL     1      15.748  12.669  -0.652  0.00  0.00    +0.000 C 
ATOM     29  H   UNL     1      16.790  12.424  -0.417  0.00  0.00    +0.000 HD
ATOM     30  H   UNL     1      15.263  11.761  -1.027  0.00  0.00    +0.000 HD
BRANCH  28  32
ATOM     31  O   UNL     1      15.937  14.898  -1.570  0.00  0.00    +0.000 OA
ATOM     32  C   UNL     1      15.756  13.698  -1.769  0.00  0.00    +0.000 C 
BRANCH  32  33
ATOM     33  C   UNL     1      15.524  13.167  -3.160  0.00  0.00    +0.000 C 
ATOM     34  H   UNL     1      15.153  12.141  -3.103  0.00  0.00    +0.000 HD
ATOM     35  H   UNL     1      16.459  13.201  -3.725  0.00  0.00    +0.000 HD
ATOM     36  H   UNL     1      14.780  13.784  -3.671  0.00  0.00    +0.000 HD
ENDBRANCH  32  33
ENDBRANCH  28  32
ENDBRANCH  25  28
ENDBRANCH  14  25
ENDBRANCH   2  12
BRANCH   3  37
ATOM     37  C   UNL     1      11.057  14.304   3.986  0.00  0.00    +0.000 C 
ATOM     38  H   UNL     1      10.757  15.349   3.847  0.00  0.00    +0.000 HD
ATOM     39  H   UNL     1      10.638  13.697   3.180  0.00  0.00    +0.000 HD
ATOM     40  H   UNL     1      10.518  13.960   4.879  0.00  0.00    +0.000 HD
ENDBRANCH   3  37
BRANCH   3  41
ATOM     41  C   UNL     1      12.826  12.925   5.091  0.00  0.00    +0.000 C 
ATOM     42  H   UNL     1      13.078  12.093   4.431  0.00  0.00    +0.000 HD
BRANCH  41  43
ATOM     43  C   UNL     1      11.563  12.564   5.855  0.00  0.00    +0.000 A 
ATOM     44  C   UNL     1      11.237  13.248   7.026  0.00  0.00    +0.000 A 
ATOM     45  C   UNL     1      10.730  11.547   5.386  0.00  0.00    +0.000 A 
ATOM     46  C   UNL     1      10.077  12.918   7.727  0.00  0.00    +0.000 A 
ATOM     47  C   UNL     1       9.572  11.216   6.087  0.00  0.00    +0.000 A 
ATOM     48  C   UNL     1       9.245  11.902   7.257  0.00  0.00    +0.000 A 
BRANCH  46  50
ATOM     49  O   UNL     1       8.607  14.073   9.175  0.00  0.00    +0.000 OA
ATOM     50  C   UNL     1       9.735  13.633   8.951  0.00  0.00    +0.000 C 
ATOM     51  H   UNL     1      10.530  13.767   9.701  0.00  0.00    +0.000 HD
ENDBRANCH  46  50
BRANCH  47  53
ATOM     52  O   UNL     1       8.346   9.203   6.296  0.00  0.00    +0.000 OA
ATOM     53  C   UNL     1       8.701  10.154   5.596  0.00  0.00    +0.000 C 
ATOM     54  H   UNL     1       8.357  10.218   4.552  0.00  0.00    +0.000 HD
ENDBRANCH  47  53
BRANCH  48  55
ATOM     55  O   UNL     1       8.110  11.577   7.943  0.00  0.00    +0.000 OA
ATOM     56  H   UNL     1       8.143  10.649   8.225  0.00  0.00    +0.000 HD
ENDBRANCH  48  55
BRANCH  45  57
ATOM     57  O   UNL     1      11.053  10.880   4.241  0.00  0.00    +0.000 OA
ATOM     58  H   UNL     1      11.926  10.464   4.311  0.00  0.00    +0.000 HD
ENDBRANCH  45  57
BRANCH  44  59
ATOM     59  O   UNL     1      12.053  14.242   7.480  0.00  0.00    +0.000 OA
ATOM     60  H   UNL     1      12.973  13.937   7.539  0.00  0.00    +0.000 HD
ENDBRANCH  44  59
ENDBRANCH  41  43
BRANCH  41  61
ATOM     61  C   UNL     1      14.043  13.180   6.010  0.00  0.00    +0.000 C 
ATOM     62  H   UNL     1      14.339  14.235   5.963  0.00  0.00    +0.000 HD
ATOM     63  H   UNL     1      13.833  12.947   7.057  0.00  0.00    +0.000 HD
BRANCH  61  64
ATOM     64  C   UNL     1      15.303  12.347   5.690  0.00  0.00    +0.000 C 
ATOM     65  H   UNL     1      15.007  11.428   5.171  0.00  0.00    +0.000 HD
BRANCH  64  66
ATOM     66  C   UNL     1      16.291  13.101   4.799  0.00  0.00    +0.000 C 
ATOM     67  H   UNL     1      15.788  13.616   3.978  0.00  0.00    +0.000 HD
ATOM     68  H   UNL     1      17.005  12.405   4.344  0.00  0.00    +0.000 HD
ATOM     69  H   UNL     1      16.866  13.833   5.377  0.00  0.00    +0.000 HD
ENDBRANCH  64  66
BRANCH  64  70
ATOM     70  C   UNL     1      15.995  11.939   6.994  0.00  0.00    +0.000 C 
ATOM     71  H   UNL     1      16.542  10.997   6.878  0.00  0.00    +0.000 HD
ATOM     72  H   UNL     1      15.264  11.809   7.799  0.00  0.00    +0.000 HD
ATOM     73  H   UNL     1      16.708  12.707   7.315  0.00  0.00    +0.000 HD
ENDBRANCH  64  70
ENDBRANCH  61  64
ENDBRANCH  41  61
ENDBRANCH   3  41
TORSDOF 19
ENDMDL
MODEL 4
REMARK VINA RESULT:    -5.617     20.648     24.450
REMARK INTER + INTRA:         -11.743
REMARK INTER:                 -10.177
REMARK INTRA:                  -1.565
REMARK UNBOUND:                -1.365
REMARK  Name = 10390702
REMARK  19 active torsions:
REMARK  status: ('A' for Active; 'I' for Inactive)
REMARK    1  A    between atoms: O_3  and  C_26
REMARK    2  A    between atoms: O_4  and  C_27
REMARK    3  A    between atoms: O_5  and  C_33
REMARK    4  A    between atoms: C_8  and  C_11
REMARK    5  A    between atoms: C_9  and  C_14
REMARK    6  A    between atoms: C_9  and  C_15
REMARK    7  A    between atoms: C_10  and  C_13
REMARK    8  A    between atoms: C_12  and  C_18
REMARK    9  A    between atoms: C_12  and  C_20
REMARK   10  A    between atoms: C_13  and  C_21
REMARK   11  A    between atoms: C_18  and  C_22
REMARK   12  A    between atoms: C_18  and  C_23
REMARK   13  A    between atoms: C_21  and  C_25
REMARK   14  A    between atoms: C_22  and  C_24
REMARK   15  A    between atoms: C_24  and  C_28
REMARK   16  A    between atoms: C_24  and  C_29
REMARK   17  A    between atoms: C_25  and  C_30
REMARK   18  A    between atoms: C_31  and  C_35
REMARK   19  A    between atoms: C_32  and  C_34
REMARK                            x       y       z     vdW  Elec       q    Type
REMARK                         _______ _______ _______ _____ _____    ______ ____
ROOT
ATOM      1  O   UNL     1      13.997  15.914   1.393  0.00  0.00    +0.000 OA
ATOM      2  C   UNL     1      13.435  14.043   2.836  0.00  0.00    +0.000 C 
ATOM      3  C   UNL     1      12.626  14.137   4.156  0.00  0.00    +0.000 C 
ATOM      4  C   UNL     1      13.204  15.412   4.806  0.00  0.00    +0.000 C 
ATOM      5  C   UNL     1      13.646  15.505   2.493  0.00  0.00    +0.000 C 
ATOM      6  C   UNL     1      13.374  16.410   3.666  0.00  0.00    +0.000 C 
ATOM      7  H   UNL     1      14.442  13.711   3.084  0.00  0.00    +0.000 HD
ATOM      8  H   UNL     1      12.537  15.956   5.469  0.00  0.00    +0.000 HD
ATOM      9  H   UNL     1      14.194  15.343   5.255  0.00  0.00    +0.000 HD
ATOM     10  H   UNL     1      12.455  16.973   3.473  0.00  0.00    +0.000 HD
ATOM     11  H   UNL     1      14.210  17.091   3.837  0.00  0.00    +0.000 HD
ENDROOT
BRANCH   2  12
ATOM     12  C   UNL     1      12.803  13.250   1.736  0.00  0.00    +0.000 C 
ATOM     13  C   UNL     1      13.084  11.783   1.592  0.00  0.00    +0.000 C 
ATOM     14  C   UNL     1      13.664  12.758   0.610  0.00  0.00    +0.000 C 
ATOM     15  H   UNL     1      11.840  13.631   1.423  0.00  0.00    +0.000 HD
ATOM     16  H   UNL     1      13.243  12.806  -0.389  0.00  0.00    +0.000 HD
BRANCH  13  17
ATOM     17  C   UNL     1      13.980  11.154   2.604  0.00  0.00    +0.000 C 
ATOM     18  H   UNL     1      13.696  10.100   2.717  0.00  0.00    +0.000 HD
ATOM     19  H   UNL     1      15.051  11.139   2.412  0.00  0.00    +0.000 HD
ATOM     20  H   UNL     1      13.817  11.615   3.581  0.00  0.00    +0.000 HD
ENDBRANCH  13  17
BRANCH  13  21
ATOM     21  C   UNL     1      11.998  10.883   1.108  0.00  0.00    +0.000 C 
ATOM     22  H   UNL     1      11.668  11.180   0.106  0.00  0.00    +0.000 HD
ATOM     23  H   UNL     1      12.348   9.847   1.061  0.00  0.00    +0.000 HD
ATOM     24  H   UNL     1      11.120  10.904   1.765  0.00  0.00    +0.000 HD
ENDBRANCH  13  21
BRANCH  14  25
ATOM     25  C   UNL     1      15.115  13.074   0.627  0.00  0.00    +0.000 C 
ATOM     26  H   UNL     1      15.685  12.720   1.487  0.00  0.00    +0.000 HD
ATOM     27  H   UNL     1      15.226  14.157   0.561  0.00  0.00    +0.000 HD
BRANCH  25  28
ATOM     28  C   UNL     1      15.815  12.651  -0.667  0.00  0.00    +0.000 C 
ATOM     29  H   UNL     1      16.886  12.514  -0.479  0.00  0.00    +0.000 HD
ATOM     30  H   UNL     1      15.409  11.696  -1.021  0.00  0.00    +0.000 HD
BRANCH  28  32
ATOM     31  O   UNL     1      15.726  14.884  -1.590  0.00  0.00    +0.000 OA
ATOM     32  C   UNL     1      15.668  13.671  -1.783  0.00  0.00    +0.000 C 
BRANCH  32  33
ATOM     33  C   UNL     1      15.441  13.113  -3.164  0.00  0.00    +0.000 C 
ATOM     34  H   UNL     1      16.315  13.315  -3.788  0.00  0.00    +0.000 HD
ATOM     35  H   UNL     1      14.549  13.570  -3.602  0.00  0.00    +0.000 HD
ATOM     36  H   UNL     1      15.291  12.031  -3.106  0.00  0.00    +0.000 HD
ENDBRANCH  32  33
ENDBRANCH  28  32
ENDBRANCH  25  28
ENDBRANCH  14  25
ENDBRANCH   2  12
BRANCH   3  37
ATOM     37  C   UNL     1      11.107  14.294   3.945  0.00  0.00    +0.000 C 
ATOM     38  H   UNL     1      10.755  15.313   4.140  0.00  0.00    +0.000 HD
ATOM     39  H   UNL     1      10.743  13.967   2.967  0.00  0.00    +0.000 HD
ATOM     40  H   UNL     1      10.562  13.655   4.653  0.00  0.00    +0.000 HD
ENDBRANCH   3  37
BRANCH   3  41
ATOM     41  C   UNL     1      12.876  12.919   5.055  0.00  0.00    +0.000 C 
ATOM     42  H   UNL     1      13.117  12.083   4.396  0.00  0.00    +0.000 HD
BRANCH  41  43
ATOM     43  C   UNL     1      11.619  12.569   5.831  0.00  0.00    +0.000 A 
ATOM     44  C   UNL     1      10.776  11.554   5.375  0.00  0.00    +0.000 A 
ATOM     45  C   UNL     1      11.305  13.261   7.001  0.00  0.00    +0.000 A 
ATOM     46  C   UNL     1       9.622  11.232   6.088  0.00  0.00    +0.000 A 
ATOM     47  C   UNL     1      10.151  12.939   7.714  0.00  0.00    +0.000 A 
ATOM     48  C   UNL     1       9.309  11.924   7.258  0.00  0.00    +0.000 A 
BRANCH  46  50
ATOM     49  O   UNL     1       8.380   9.233   6.322  0.00  0.00    +0.000 OA
ATOM     50  C   UNL     1       8.742  10.171   5.611  0.00  0.00    +0.000 C 
ATOM     51  H   UNL     1       8.386  10.235   4.570  0.00  0.00    +0.000 HD
ENDBRANCH  46  50
BRANCH  47  53
ATOM     52  O   UNL     1       9.659  13.104  10.023  0.00  0.00    +0.000 OA
ATOM     53  C   UNL     1       9.823  13.664   8.937  0.00  0.00    +0.000 C 
ATOM     54  H   UNL     1       9.720  14.758   8.870  0.00  0.00    +0.000 HD
ENDBRANCH  47  53
BRANCH  48  55
ATOM     55  O   UNL     1       8.179  11.610   7.956  0.00  0.00    +0.000 OA
ATOM     56  H   UNL     1       7.675  10.926   7.487  0.00  0.00    +0.000 HD
ENDBRANCH  48  55
BRANCH  45  57
ATOM     57  O   UNL     1      12.131  14.253   7.445  0.00  0.00    +0.000 OA
ATOM     58  H   UNL     1      12.892  14.365   6.856  0.00  0.00    +0.000 HD
ENDBRANCH  45  57
BRANCH  44  59
ATOM     59  O   UNL     1      11.087  10.879   4.230  0.00  0.00    +0.000 OA
ATOM     60  H   UNL     1      11.031  11.462   3.456  0.00  0.00    +0.000 HD
ENDBRANCH  44  59
ENDBRANCH  41  43
BRANCH  41  61
ATOM     61  C   UNL     1      14.104  13.170   5.961  0.00  0.00    +0.000 C 
ATOM     62  H   UNL     1      14.402  14.224   5.914  0.00  0.00    +0.000 HD
ATOM     63  H   UNL     1      13.904  12.935   7.010  0.00  0.00    +0.000 HD
BRANCH  61  64
ATOM     64  C   UNL     1      15.358  12.334   5.626  0.00  0.00    +0.000 C 
ATOM     65  H   UNL     1      15.056  11.428   5.089  0.00  0.00    +0.000 HD
BRANCH  64  66
ATOM     66  C   UNL     1      16.353  13.099   4.752  0.00  0.00    +0.000 C 
ATOM     67  H   UNL     1      17.358  12.675   4.813  0.00  0.00    +0.000 HD
ATOM     68  H   UNL     1      16.431  14.141   5.083  0.00  0.00    +0.000 HD
ATOM     69  H   UNL     1      16.035  13.109   3.705  0.00  0.00    +0.000 HD
ENDBRANCH  64  66
BRANCH  64  70
ATOM     70  C   UNL     1      16.046  11.896   6.923  0.00  0.00    +0.000 C 
ATOM     71  H   UNL     1      15.356  11.936   7.773  0.00  0.00    +0.000 HD
ATOM     72  H   UNL     1      16.900  12.543   7.148  0.00  0.00    +0.000 HD
ATOM     73  H   UNL     1      16.420  10.870   6.839  0.00  0.00    +0.000 HD
ENDBRANCH  64  70
ENDBRANCH  61  64
ENDBRANCH  41  61
ENDBRANCH   3  41
TORSDOF 19
ENDMDL
MODEL 5
REMARK VINA RESULT:    -5.384      5.935     10.000
REMARK INTER + INTRA:         -11.314
REMARK INTER:                  -9.948
REMARK INTRA:                  -1.366
REMARK UNBOUND:                -1.365
REMARK  Name = 10390702
REMARK  19 active torsions:
REMARK  status: ('A' for Active; 'I' for Inactive)
REMARK    1  A    between atoms: O_3  and  C_26
REMARK    2  A    between atoms: O_4  and  C_27
REMARK    3  A    between atoms: O_5  and  C_33
REMARK    4  A    between atoms: C_8  and  C_11
REMARK    5  A    between atoms: C_9  and  C_14
REMARK    6  A    between atoms: C_9  and  C_15
REMARK    7  A    between atoms: C_10  and  C_13
REMARK    8  A    between atoms: C_12  and  C_18
REMARK    9  A    between atoms: C_12  and  C_20
REMARK   10  A    between atoms: C_13  and  C_21
REMARK   11  A    between atoms: C_18  and  C_22
REMARK   12  A    between atoms: C_18  and  C_23
REMARK   13  A    between atoms: C_21  and  C_25
REMARK   14  A    between atoms: C_22  and  C_24
REMARK   15  A    between atoms: C_24  and  C_28
REMARK   16  A    between atoms: C_24  and  C_29
REMARK   17  A    between atoms: C_25  and  C_30
REMARK   18  A    between atoms: C_31  and  C_35
REMARK   19  A    between atoms: C_32  and  C_34
REMARK                            x       y       z     vdW  Elec       q    Type
REMARK                         _______ _______ _______ _____ _____    ______ ____
ROOT
ATOM      1  O   UNL     1     -12.719   5.979  -7.724  0.00  0.00    +0.000 OA
ATOM      2  C   UNL     1     -10.406   5.278  -7.973  0.00  0.00    +0.000 C 
ATOM      3  C   UNL     1      -9.459   5.698  -9.128  0.00  0.00    +0.000 C 
ATOM      4  C   UNL     1     -10.385   5.612 -10.360  0.00  0.00    +0.000 C 
ATOM      5  C   UNL     1     -11.738   5.832  -8.443  0.00  0.00    +0.000 C 
ATOM      6  C   UNL     1     -11.723   6.187  -9.907  0.00  0.00    +0.000 C 
ATOM      7  H   UNL     1     -10.561   4.202  -8.042  0.00  0.00    +0.000 HD
ATOM      8  H   UNL     1     -10.140   6.269 -11.190  0.00  0.00    +0.000 HD
ATOM      9  H   UNL     1     -10.631   4.619 -10.737  0.00  0.00    +0.000 HD
ATOM     10  H   UNL     1     -11.756   7.277 -10.007  0.00  0.00    +0.000 HD
ATOM     11  H   UNL     1     -12.565   5.729 -10.429  0.00  0.00    +0.000 HD
ENDROOT
BRANCH   2  12
ATOM     12  C   UNL     1     -10.013   5.735  -6.604  0.00  0.00    +0.000 C 
ATOM     13  C   UNL     1      -9.091   4.907  -5.757  0.00  0.00    +0.000 C 
ATOM     14  C   UNL     1     -10.548   4.998  -5.412  0.00  0.00    +0.000 C 
ATOM     15  H   UNL     1     -10.001   6.811  -6.491  0.00  0.00    +0.000 HD
ATOM     16  H   UNL     1     -10.845   5.596  -4.557  0.00  0.00    +0.000 HD
BRANCH  13  17
ATOM     17  C   UNL     1      -8.564   3.644  -6.351  0.00  0.00    +0.000 C 
ATOM     18  H   UNL     1      -7.502   3.784  -6.587  0.00  0.00    +0.000 HD
ATOM     19  H   UNL     1      -8.603   2.734  -5.755  0.00  0.00    +0.000 HD
ATOM     20  H   UNL     1      -9.060   3.447  -7.304  0.00  0.00    +0.000 HD
ENDBRANCH  13  17
BRANCH  13  21
ATOM     21  C   UNL     1      -8.125   5.595  -4.855  0.00  0.00    +0.000 C 
ATOM     22  H   UNL     1      -7.693   4.887  -4.139  0.00  0.00    +0.000 HD
ATOM     23  H   UNL     1      -7.308   6.041  -5.432  0.00  0.00    +0.000 HD
ATOM     24  H   UNL     1      -8.597   6.400  -4.280  0.00  0.00    +0.000 HD
ENDBRANCH  13  21
BRANCH  14  25
ATOM     25  C   UNL     1     -11.451   3.840  -5.632  0.00  0.00    +0.000 C 
ATOM     26  H   UNL     1     -11.064   2.856  -5.361  0.00  0.00    +0.000 HD
ATOM     27  H   UNL     1     -11.729   3.823  -6.686  0.00  0.00    +0.000 HD
BRANCH  25  28
ATOM     28  C   UNL     1     -12.826   4.048  -4.993  0.00  0.00    +0.000 C 
ATOM     29  H   UNL     1     -12.741   4.749  -4.155  0.00  0.00    +0.000 HD
ATOM     30  H   UNL     1     -13.521   4.479  -5.724  0.00  0.00    +0.000 HD
BRANCH  28  32
ATOM     31  O   UNL     1     -14.507   2.731  -3.859  0.00  0.00    +0.000 OA
ATOM     32  C   UNL     1     -13.435   2.763  -4.461  0.00  0.00    +0.000 C 
BRANCH  32  33
ATOM     33  C   UNL     1     -12.646   1.504  -4.710  0.00  0.00    +0.000 C 
ATOM     34  H   UNL     1     -12.221   1.531  -5.716  0.00  0.00    +0.000 HD
ATOM     35  H   UNL     1     -13.298   0.634  -4.597  0.00  0.00    +0.000 HD
ATOM     36  H   UNL     1     -11.830   1.430  -3.984  0.00  0.00    +0.000 HD
ENDBRANCH  32  33
ENDBRANCH  28  32
ENDBRANCH  25  28
ENDBRANCH  14  25
ENDBRANCH   2  12
BRANCH   3  37
ATOM     37  C   UNL     1      -8.901   7.127  -8.986  0.00  0.00    +0.000 C 
ATOM     38  H   UNL     1      -9.481   7.741  -8.288  0.00  0.00    +0.000 HD
ATOM     39  H   UNL     1      -7.842   7.182  -8.720  0.00  0.00    +0.000 HD
ATOM     40  H   UNL     1      -8.954   7.649  -9.951  0.00  0.00    +0.000 HD
ENDBRANCH   3  37
BRANCH   3  41
ATOM     41  C   UNL     1      -8.286   4.721  -9.272  0.00  0.00    +0.000 C 
ATOM     42  H   UNL     1      -8.014   4.402  -8.265  0.00  0.00    +0.000 HD
BRANCH  41  43
ATOM     43  C   UNL     1      -7.088   5.423  -9.891  0.00  0.00    +0.000 A 
ATOM     44  C   UNL     1      -6.013   5.805  -9.088  0.00  0.00    +0.000 A 
ATOM     45  C   UNL     1      -7.064   5.685 -11.261  0.00  0.00    +0.000 A 
ATOM     46  C   UNL     1      -4.913   6.448  -9.656  0.00  0.00    +0.000 A 
ATOM     47  C   UNL     1      -5.965   6.329 -11.828  0.00  0.00    +0.000 A 
ATOM     48  C   UNL     1      -4.889   6.710 -11.026  0.00  0.00    +0.000 A 
BRANCH  46  50
ATOM     49  O   UNL     1      -3.330   7.991  -8.813  0.00  0.00    +0.000 OA
ATOM     50  C   UNL     1      -3.788   6.847  -8.817  0.00  0.00    +0.000 C 
ATOM     51  H   UNL     1      -3.349   6.082  -8.157  0.00  0.00    +0.000 HD
ENDBRANCH  46  50
BRANCH  47  53
ATOM     52  O   UNL     1      -5.799   5.721 -14.109  0.00  0.00    +0.000 OA
ATOM     53  C   UNL     1      -5.940   6.604 -13.260  0.00  0.00    +0.000 C 
ATOM     54  H   UNL     1      -6.052   7.652 -13.581  0.00  0.00    +0.000 HD
ENDBRANCH  47  53
BRANCH  48  55
ATOM     55  O   UNL     1      -3.813   7.340 -11.581  0.00  0.00    +0.000 OA
ATOM     56  H   UNL     1      -3.104   7.435 -10.925  0.00  0.00    +0.000 HD
ENDBRANCH  48  55
BRANCH  45  57
ATOM     57  O   UNL     1      -8.118   5.311 -12.042  0.00  0.00    +0.000 OA
ATOM     58  H   UNL     1      -7.926   5.451 -12.981  0.00  0.00    +0.000 HD
ENDBRANCH  45  57
BRANCH  44  59
ATOM     59  O   UNL     1      -6.040   5.545  -7.749  0.00  0.00    +0.000 OA
ATOM     60  H   UNL     1      -5.969   6.365  -7.234  0.00  0.00    +0.000 HD
ENDBRANCH  44  59
ENDBRANCH  41  43
BRANCH  41  61
ATOM     61  C   UNL     1      -8.731   3.466 -10.059  0.00  0.00    +0.000 C 
ATOM     62  H   UNL     1      -9.679   3.085  -9.659  0.00  0.00    +0.000 HD
ATOM     63  H   UNL     1      -8.885   3.671 -11.121  0.00  0.00    +0.000 HD
BRANCH  61  64
ATOM     64  C   UNL     1      -7.734   2.287 -10.048  0.00  0.00    +0.000 C 
ATOM     65  H   UNL     1      -6.748   2.650  -9.734  0.00  0.00    +0.000 HD
BRANCH  64  66
ATOM     66  C   UNL     1      -8.159   1.171  -9.093  0.00  0.00    +0.000 C 
ATOM     67  H   UNL     1      -8.384   0.244  -9.625  0.00  0.00    +0.000 HD
ATOM     68  H   UNL     1      -9.071   1.455  -8.555  0.00  0.00    +0.000 HD
ATOM     69  H   UNL     1      -7.384   0.972  -8.346  0.00  0.00    +0.000 HD
ENDBRANCH  64  66
BRANCH  64  70
ATOM     70  C   UNL     1      -7.589   1.723 -11.464  0.00  0.00    +0.000 C 
ATOM     71  H   UNL     1      -6.661   2.065 -11.937  0.00  0.00    +0.000 HD
ATOM     72  H   UNL     1      -8.427   2.038 -12.096  0.00  0.00    +0.000 HD
ATOM     73  H   UNL     1      -7.579   0.628 -11.450  0.00  0.00    +0.000 HD
ENDBRANCH  64  70
ENDBRANCH  61  64
ENDBRANCH  41  61
ENDBRANCH   3  41
TORSDOF 19
ENDMDL
MODEL 6
REMARK VINA RESULT:    -5.369     21.033     23.683
REMARK INTER + INTRA:         -11.285
REMARK INTER:                  -9.777
REMARK INTRA:                  -1.507
REMARK UNBOUND:                -1.365
REMARK  Name = 10390702
REMARK  19 active torsions:
REMARK  status: ('A' for Active; 'I' for Inactive)
REMARK    1  A    between atoms: O_3  and  C_26
REMARK    2  A    between atoms: O_4  and  C_27
REMARK    3  A    between atoms: O_5  and  C_33
REMARK    4  A    between atoms: C_8  and  C_11
REMARK    5  A    between atoms: C_9  and  C_14
REMARK    6  A    between atoms: C_9  and  C_15
REMARK    7  A    between atoms: C_10  and  C_13
REMARK    8  A    between atoms: C_12  and  C_18
REMARK    9  A    between atoms: C_12  and  C_20
REMARK   10  A    between atoms: C_13  and  C_21
REMARK   11  A    between atoms: C_18  and  C_22
REMARK   12  A    between atoms: C_18  and  C_23
REMARK   13  A    between atoms: C_21  and  C_25
REMARK   14  A    between atoms: C_22  and  C_24
REMARK   15  A    between atoms: C_24  and  C_28
REMARK   16  A    between atoms: C_24  and  C_29
REMARK   17  A    between atoms: C_25  and  C_30
REMARK   18  A    between atoms: C_31  and  C_35
REMARK   19  A    between atoms: C_32  and  C_34
REMARK                            x       y       z     vdW  Elec       q    Type
REMARK                         _______ _______ _______ _____ _____    ______ ____
ROOT
ATOM      1  O   UNL     1      14.736  12.351   7.195  0.00  0.00    +0.000 OA
ATOM      2  C   UNL     1      14.093  13.531   5.171  0.00  0.00    +0.000 C 
ATOM      3  C   UNL     1      15.067  14.015   4.065  0.00  0.00    +0.000 C 
ATOM      4  C   UNL     1      16.251  14.568   4.889  0.00  0.00    +0.000 C 
ATOM      5  C   UNL     1      15.051  13.064   6.251  0.00  0.00    +0.000 C 
ATOM      6  C   UNL     1      16.450  13.578   6.031  0.00  0.00    +0.000 C 
ATOM      7  H   UNL     1      13.638  14.411   5.625  0.00  0.00    +0.000 HD
ATOM      8  H   UNL     1      17.224  14.537   4.407  0.00  0.00    +0.000 HD
ATOM      9  H   UNL     1      16.114  15.529   5.383  0.00  0.00    +0.000 HD
ATOM     10  H   UNL     1      17.094  12.741   5.742  0.00  0.00    +0.000 HD
ATOM     11  H   UNL     1      16.834  14.063   6.931  0.00  0.00    +0.000 HD
ENDROOT
BRANCH   2  12
ATOM     12  C   UNL     1      13.097  12.493   4.760  0.00  0.00    +0.000 C 
ATOM     13  C   UNL     1      11.778  12.893   4.165  0.00  0.00    +0.000 C 
ATOM     14  C   UNL     1      11.837  12.340   5.559  0.00  0.00    +0.000 C 
ATOM     15  H   UNL     1      13.546  11.557   4.455  0.00  0.00    +0.000 HD
ATOM     16  H   UNL     1      11.486  11.329   5.734  0.00  0.00    +0.000 HD
BRANCH  13  17
ATOM     17  C   UNL     1      11.526  14.350   3.974  0.00  0.00    +0.000 C 
ATOM     18  H   UNL     1      12.397  14.794   3.475  0.00  0.00    +0.000 HD
ATOM     19  H   UNL     1      10.671  14.655   3.372  0.00  0.00    +0.000 HD
ATOM     20  H   UNL     1      11.452  14.844   4.945  0.00  0.00    +0.000 HD
ENDBRANCH  13  17
BRANCH  13  21
ATOM     21  C   UNL     1      11.172  12.034   3.109  0.00  0.00    +0.000 C 
ATOM     22  H   UNL     1      11.150  10.986   3.428  0.00  0.00    +0.000 HD
ATOM     23  H   UNL     1      10.145  12.349   2.897  0.00  0.00    +0.000 HD
ATOM     24  H   UNL     1      11.730  12.080   2.166  0.00  0.00    +0.000 HD
ENDBRANCH  13  21
BRANCH  14  25
ATOM     25  C   UNL     1      11.621  13.224   6.732  0.00  0.00    +0.000 C 
ATOM     26  H   UNL     1      11.605  14.299   6.542  0.00  0.00    +0.000 HD
ATOM     27  H   UNL     1      12.402  13.014   7.463  0.00  0.00    +0.000 HD
BRANCH  25  28
ATOM     28  C   UNL     1      10.383  12.823   7.538  0.00  0.00    +0.000 C 
ATOM     29  H   UNL     1      10.537  11.835   7.985  0.00  0.00    +0.000 HD
ATOM     30  H   UNL     1      10.213  13.538   8.352  0.00  0.00    +0.000 HD
BRANCH  28  32
ATOM     31  O   UNL     1       8.651  13.738   6.120  0.00  0.00    +0.000 OA
ATOM     32  C   UNL     1       9.121  12.758   6.696  0.00  0.00    +0.000 C 
BRANCH  32  33
ATOM     33  C   UNL     1       8.459  11.408   6.597  0.00  0.00    +0.000 C 
ATOM     34  H   UNL     1       7.390  11.536   6.412  0.00  0.00    +0.000 HD
ATOM     35  H   UNL     1       8.619  10.853   7.526  0.00  0.00    +0.000 HD
ATOM     36  H   UNL     1       8.896  10.842   5.769  0.00  0.00    +0.000 HD
ENDBRANCH  32  33
ENDBRANCH  28  32
ENDBRANCH  25  28
ENDBRANCH  14  25
ENDBRANCH   2  12
BRANCH   3  37
ATOM     37  C   UNL     1      15.554  12.892   3.130  0.00  0.00    +0.000 C 
ATOM     38  H   UNL     1      16.570  12.554   3.365  0.00  0.00    +0.000 HD
ATOM     39  H   UNL     1      14.890  12.024   3.070  0.00  0.00    +0.000 HD
ATOM     40  H   UNL     1      15.597  13.257   2.095  0.00  0.00    +0.000 HD
ENDBRANCH   3  37
BRANCH   3  41
ATOM     41  C   UNL     1      14.441  15.129   3.216  0.00  0.00    +0.000 C 
ATOM     42  H   UNL     1      13.369  14.928   3.171  0.00  0.00    +0.000 HD
BRANCH  41  43
ATOM     43  C   UNL     1      14.995  15.089   1.802  0.00  0.00    +0.000 A 
ATOM     44  C   UNL     1      16.242  15.650   1.526  0.00  0.00    +0.000 A 
ATOM     45  C   UNL     1      14.257  14.491   0.780  0.00  0.00    +0.000 A 
ATOM     46  C   UNL     1      16.751  15.613   0.228  0.00  0.00    +0.000 A 
ATOM     47  C   UNL     1      14.765  14.455  -0.518  0.00  0.00    +0.000 A 
ATOM     48  C   UNL     1      16.013  15.015  -0.794  0.00  0.00    +0.000 A 
BRANCH  46  50
ATOM     49  O   UNL     1      18.351  17.355   0.246  0.00  0.00    +0.000 OA
ATOM     50  C   UNL     1      18.054  16.199  -0.062  0.00  0.00    +0.000 C 
ATOM     51  H   UNL     1      18.798  15.563  -0.568  0.00  0.00    +0.000 HD
ENDBRANCH  46  50
BRANCH  47  53
ATOM     52  O   UNL     1      14.504  13.115  -2.450  0.00  0.00    +0.000 OA
ATOM     53  C   UNL     1      13.994  13.830  -1.586  0.00  0.00    +0.000 C 
ATOM     54  H   UNL     1      12.908  14.017  -1.607  0.00  0.00    +0.000 HD
ENDBRANCH  47  53
BRANCH  48  55
ATOM     55  O   UNL     1      16.510  14.979  -2.064  0.00  0.00    +0.000 OA
ATOM     56  H   UNL     1      17.142  15.704  -2.198  0.00  0.00    +0.000 HD
ENDBRANCH  48  55
BRANCH  45  57
ATOM     57  O   UNL     1      13.037  13.944   1.054  0.00  0.00    +0.000 OA
ATOM     58  H   UNL     1      13.070  13.397   1.853  0.00  0.00    +0.000 HD
ENDBRANCH  45  57
BRANCH  44  59
ATOM     59  O   UNL     1      16.960  16.233   2.528  0.00  0.00    +0.000 OA
ATOM     60  H   UNL     1      16.590  17.098   2.765  0.00  0.00    +0.000 HD
ENDBRANCH  44  59
ENDBRANCH  41  43
BRANCH  41  61
ATOM     61  C   UNL     1      14.633  16.498   3.909  0.00  0.00    +0.000 C 
ATOM     62  H   UNL     1      14.838  16.358   4.977  0.00  0.00    +0.000 HD
ATOM     63  H   UNL     1      15.467  17.066   3.489  0.00  0.00    +0.000 HD
BRANCH  61  64
ATOM     64  C   UNL     1      13.435  17.467   3.806  0.00  0.00    +0.000 C 
ATOM     65  H   UNL     1      12.518  16.942   4.096  0.00  0.00    +0.000 HD
BRANCH  64  66
ATOM     66  C   UNL     1      13.593  18.689   4.713  0.00  0.00    +0.000 C 
ATOM     67  H   UNL     1      14.529  19.219   4.522  0.00  0.00    +0.000 HD
ATOM     68  H   UNL     1      13.613  18.385   5.765  0.00  0.00    +0.000 HD
ATOM     69  H   UNL     1      12.759  19.386   4.587  0.00  0.00    +0.000 HD
ENDBRANCH  64  66
BRANCH  64  70
ATOM     70  C   UNL     1      13.266  17.924   2.354  0.00  0.00    +0.000 C 
ATOM     71  H   UNL     1      13.054  18.998   2.296  0.00  0.00    +0.000 HD
ATOM     72  H   UNL     1      12.442  17.389   1.871  0.00  0.00    +0.000 HD
ATOM     73  H   UNL     1      14.174  17.727   1.774  0.00  0.00    +0.000 HD
ENDBRANCH  64  70
ENDBRANCH  61  64
ENDBRANCH  41  61
ENDBRANCH   3  41
TORSDOF 19
ENDMDL
MODEL 7
REMARK VINA RESULT:    -5.333     10.018     14.162
REMARK INTER + INTRA:         -11.219
REMARK INTER:                  -9.620
REMARK INTRA:                  -1.600
REMARK UNBOUND:                -1.365
REMARK  Name = 10390702
REMARK  19 active torsions:
REMARK  status: ('A' for Active; 'I' for Inactive)
REMARK    1  A    between atoms: O_3  and  C_26
REMARK    2  A    between atoms: O_4  and  C_27
REMARK    3  A    between atoms: O_5  and  C_33
REMARK    4  A    between atoms: C_8  and  C_11
REMARK    5  A    between atoms: C_9  and  C_14
REMARK    6  A    between atoms: C_9  and  C_15
REMARK    7  A    between atoms: C_10  and  C_13
REMARK    8  A    between atoms: C_12  and  C_18
REMARK    9  A    between atoms: C_12  and  C_20
REMARK   10  A    between atoms: C_13  and  C_21
REMARK   11  A    between atoms: C_18  and  C_22
REMARK   12  A    between atoms: C_18  and  C_23
REMARK   13  A    between atoms: C_21  and  C_25
REMARK   14  A    between atoms: C_22  and  C_24
REMARK   15  A    between atoms: C_24  and  C_28
REMARK   16  A    between atoms: C_24  and  C_29
REMARK   17  A    between atoms: C_25  and  C_30
REMARK   18  A    between atoms: C_31  and  C_35
REMARK   19  A    between atoms: C_32  and  C_34
REMARK                            x       y       z     vdW  Elec       q    Type
REMARK                         _______ _______ _______ _____ _____    ______ ____
ROOT
ATOM      1  O   UNL     1       2.448   0.854 -19.189  0.00  0.00    +0.000 OA
ATOM      2  C   UNL     1       2.324  -0.629 -17.269  0.00  0.00    +0.000 C 
ATOM      3  C   UNL     1       1.459  -0.392 -16.003  0.00  0.00    +0.000 C 
ATOM      4  C   UNL     1       1.657   1.117 -15.748  0.00  0.00    +0.000 C 
ATOM      5  C   UNL     1       2.166   0.685 -18.008  0.00  0.00    +0.000 C 
ATOM      6  C   UNL     1       1.615   1.773 -17.124  0.00  0.00    +0.000 C 
ATOM      7  H   UNL     1       3.371  -0.605 -16.968  0.00  0.00    +0.000 HD
ATOM      8  H   UNL     1       0.843   1.628 -15.243  0.00  0.00    +0.000 HD
ATOM      9  H   UNL     1       2.610   1.435 -15.326  0.00  0.00    +0.000 HD
ATOM     10  H   UNL     1       0.592   2.001 -17.439  0.00  0.00    +0.000 HD
ATOM     11  H   UNL     1       2.238   2.669 -17.171  0.00  0.00    +0.000 HD
ENDROOT
BRANCH   2  12
ATOM     12  C   UNL     1       1.970  -1.829 -18.090  0.00  0.00    +0.000 C 
ATOM     13  C   UNL     1       2.697  -3.128 -17.897  0.00  0.00    +0.000 C 
ATOM     14  C   UNL     1       2.940  -2.308 -19.130  0.00  0.00    +0.000 C 
ATOM     15  H   UNL     1       0.935  -1.851 -18.405  0.00  0.00    +0.000 HD
ATOM     16  H   UNL     1       2.522  -2.646 -20.072  0.00  0.00    +0.000 HD
BRANCH  13  17
ATOM     17  C   UNL     1       3.748  -3.176 -16.840  0.00  0.00    +0.000 C 
ATOM     18  H   UNL     1       3.663  -4.130 -16.304  0.00  0.00    +0.000 HD
ATOM     19  H   UNL     1       4.792  -3.115 -17.142  0.00  0.00    +0.000 HD
ATOM     20  H   UNL     1       3.562  -2.397 -16.098  0.00  0.00    +0.000 HD
ENDBRANCH  13  17
BRANCH  13  21
ATOM     21  C   UNL     1       1.947  -4.406 -18.058  0.00  0.00    +0.000 C 
ATOM     22  H   UNL     1       2.213  -4.895 -19.001  0.00  0.00    +0.000 HD
ATOM     23  H   UNL     1       2.178  -5.095 -17.238  0.00  0.00    +0.000 HD
ATOM     24  H   UNL     1       0.861  -4.252 -18.060  0.00  0.00    +0.000 HD
ENDBRANCH  13  21
BRANCH  14  25
ATOM     25  C   UNL     1       4.218  -1.574 -19.310  0.00  0.00    +0.000 C 
ATOM     26  H   UNL     1       4.629  -1.079 -18.428  0.00  0.00    +0.000 HD
ATOM     27  H   UNL     1       4.072  -0.826 -20.089  0.00  0.00    +0.000 HD
BRANCH  25  28
ATOM     28  C   UNL     1       5.296  -2.441 -19.966  0.00  0.00    +0.000 C 
ATOM     29  H   UNL     1       5.034  -3.500 -19.858  0.00  0.00    +0.000 HD
ATOM     30  H   UNL     1       5.361  -2.217 -21.037  0.00  0.00    +0.000 HD
BRANCH  28  32
ATOM     31  O   UNL     1       7.655  -2.898 -19.695  0.00  0.00    +0.000 OA
ATOM     32  C   UNL     1       6.672  -2.241 -19.355  0.00  0.00    +0.000 C 
BRANCH  32  33
ATOM     33  C   UNL     1       6.776  -1.178 -18.292  0.00  0.00    +0.000 C 
ATOM     34  H   UNL     1       5.837  -1.122 -17.738  0.00  0.00    +0.000 HD
ATOM     35  H   UNL     1       7.000  -0.215 -18.758  0.00  0.00    +0.000 HD
ATOM     36  H   UNL     1       7.583  -1.430 -17.597  0.00  0.00    +0.000 HD
ENDBRANCH  32  33
ENDBRANCH  28  32
ENDBRANCH  25  28
ENDBRANCH  14  25
ENDBRANCH   2  12
BRANCH   3  37
ATOM     37  C   UNL     1      -0.037  -0.701 -16.206  0.00  0.00    +0.000 C 
ATOM     38  H   UNL     1      -0.206  -1.597 -16.815  0.00  0.00    +0.000 HD
ATOM     39  H   UNL     1      -0.620  -0.776 -15.284  0.00  0.00    +0.000 HD
ATOM     40  H   UNL     1      -0.519   0.120 -16.753  0.00  0.00    +0.000 HD
ENDBRANCH   3  37
BRANCH   3  41
ATOM     41  C   UNL     1       1.975  -1.208 -14.812  0.00  0.00    +0.000 C 
ATOM     42  H   UNL     1       2.491  -2.077 -15.222  0.00  0.00    +0.000 HD
BRANCH  41  43
ATOM     43  C   UNL     1       0.813  -1.698 -13.965  0.00  0.00    +0.000 A 
ATOM     44  C   UNL     1       0.362  -3.012 -14.093  0.00  0.00    +0.000 A 
ATOM     45  C   UNL     1       0.195  -0.834 -13.060  0.00  0.00    +0.000 A 
ATOM     46  C   UNL     1      -0.705  -3.462 -13.315  0.00  0.00    +0.000 A 
ATOM     47  C   UNL     1      -0.872  -1.284 -12.283  0.00  0.00    +0.000 A 
ATOM     48  C   UNL     1      -1.321  -2.598 -12.410  0.00  0.00    +0.000 A 
BRANCH  46  50
ATOM     49  O   UNL     1      -1.100  -5.660 -12.535  0.00  0.00    +0.000 OA
ATOM     50  C   UNL     1      -1.176  -4.836 -13.448  0.00  0.00    +0.000 C 
ATOM     51  H   UNL     1      -1.626  -5.129 -14.409  0.00  0.00    +0.000 HD
ENDBRANCH  46  50
BRANCH  47  53
ATOM     52  O   UNL     1      -1.679  -0.660 -10.148  0.00  0.00    +0.000 OA
ATOM     53  C   UNL     1      -1.517  -0.380 -11.337  0.00  0.00    +0.000 C 
ATOM     54  H   UNL     1      -1.870   0.591 -11.719  0.00  0.00    +0.000 HD
ENDBRANCH  47  53
BRANCH  48  55
ATOM     55  O   UNL     1      -2.366  -3.038 -11.649  0.00  0.00    +0.000 OA
ATOM     56  H   UNL     1      -2.667  -2.333 -11.054  0.00  0.00    +0.000 HD
ENDBRANCH  48  55
BRANCH  45  57
ATOM     57  O   UNL     1       0.638   0.451 -12.938  0.00  0.00    +0.000 OA
ATOM     58  H   UNL     1       0.269   1.016 -13.633  0.00  0.00    +0.000 HD
ENDBRANCH  45  57
BRANCH  44  59
ATOM     59  O   UNL     1       0.969  -3.854 -14.978  0.00  0.00    +0.000 OA
ATOM     60  H   UNL     1       0.480  -4.690 -15.055  0.00  0.00    +0.000 HD
ENDBRANCH  44  59
ENDBRANCH  41  43
BRANCH  41  61
ATOM     61  C   UNL     1       3.010  -0.384 -14.010  0.00  0.00    +0.000 C 
ATOM     62  H   UNL     1       3.233   0.555 -14.531  0.00  0.00    +0.000 HD
ATOM     63  H   UNL     1       2.653  -0.124 -13.010  0.00  0.00    +0.000 HD
BRANCH  61  64
ATOM     64  C   UNL     1       4.361  -1.085 -13.752  0.00  0.00    +0.000 C 
ATOM     65  H   UNL     1       4.835  -0.645 -12.868  0.00  0.00    +0.000 HD
BRANCH  64  66
ATOM     66  C   UNL     1       4.202  -2.587 -13.512  0.00  0.00    +0.000 C 
ATOM     67  H   UNL     1       4.503  -2.872 -12.501  0.00  0.00    +0.000 HD
ATOM     68  H   UNL     1       4.838  -3.155 -14.201  0.00  0.00    +0.000 HD
ATOM     69  H   UNL     1       3.169  -2.908 -13.677  0.00  0.00    +0.000 HD
ENDBRANCH  64  66
BRANCH  64  70
ATOM     70  C   UNL     1       5.296  -0.852 -14.943  0.00  0.00    +0.000 C 
ATOM     71  H   UNL     1       5.029  -1.492 -15.791  0.00  0.00    +0.000 HD
ATOM     72  H   UNL     1       6.334  -1.069 -14.670  0.00  0.00    +0.000 HD
ATOM     73  H   UNL     1       5.252   0.190 -15.277  0.00  0.00    +0.000 HD
ENDBRANCH  64  70
ENDBRANCH  61  64
ENDBRANCH  41  61
ENDBRANCH   3  41
TORSDOF 19
ENDMDL
MODEL 8
REMARK VINA RESULT:    -5.326     21.011     23.745
REMARK INTER + INTRA:         -11.205
REMARK INTER:                  -9.730
REMARK INTRA:                  -1.475
REMARK UNBOUND:                -1.365
REMARK  Name = 10390702
REMARK  19 active torsions:
REMARK  status: ('A' for Active; 'I' for Inactive)
REMARK    1  A    between atoms: O_3  and  C_26
REMARK    2  A    between atoms: O_4  and  C_27
REMARK    3  A    between atoms: O_5  and  C_33
REMARK    4  A    between atoms: C_8  and  C_11
REMARK    5  A    between atoms: C_9  and  C_14
REMARK    6  A    between atoms: C_9  and  C_15
REMARK    7  A    between atoms: C_10  and  C_13
REMARK    8  A    between atoms: C_12  and  C_18
REMARK    9  A    between atoms: C_12  and  C_20
REMARK   10  A    between atoms: C_13  and  C_21
REMARK   11  A    between atoms: C_18  and  C_22
REMARK   12  A    between atoms: C_18  and  C_23
REMARK   13  A    between atoms: C_21  and  C_25
REMARK   14  A    between atoms: C_22  and  C_24
REMARK   15  A    between atoms: C_24  and  C_28
REMARK   16  A    between atoms: C_24  and  C_29
REMARK   17  A    between atoms: C_25  and  C_30
REMARK   18  A    between atoms: C_31  and  C_35
REMARK   19  A    between atoms: C_32  and  C_34
REMARK                            x       y       z     vdW  Elec       q    Type
REMARK                         _______ _______ _______ _____ _____    ______ ____
ROOT
ATOM      1  O   UNL     1      14.726  12.374   7.224  0.00  0.00    +0.000 OA
ATOM      2  C   UNL     1      14.061  13.531   5.194  0.00  0.00    +0.000 C 
ATOM      3  C   UNL     1      15.023  14.008   4.075  0.00  0.00    +0.000 C 
ATOM      4  C   UNL     1      16.211  14.575   4.883  0.00  0.00    +0.000 C 
ATOM      5  C   UNL     1      15.030  13.080   6.270  0.00  0.00    +0.000 C 
ATOM      6  C   UNL     1      16.424  13.599   6.034  0.00  0.00    +0.000 C 
ATOM      7  H   UNL     1      13.605  14.412   5.642  0.00  0.00    +0.000 HD
ATOM      8  H   UNL     1      17.180  14.545   4.394  0.00  0.00    +0.000 HD
ATOM      9  H   UNL     1      16.073  15.541   5.369  0.00  0.00    +0.000 HD
ATOM     10  H   UNL     1      17.070  12.762   5.748  0.00  0.00    +0.000 HD
ATOM     11  H   UNL     1      16.813  14.094   6.925  0.00  0.00    +0.000 HD
ENDROOT
BRANCH   2  12
ATOM     12  C   UNL     1      13.067  12.483   4.801  0.00  0.00    +0.000 C 
ATOM     13  C   UNL     1      11.736  12.870   4.224  0.00  0.00    +0.000 C 
ATOM     14  C   UNL     1      11.820  12.323   5.619  0.00  0.00    +0.000 C 
ATOM     15  H   UNL     1      13.519  11.549   4.493  0.00  0.00    +0.000 HD
ATOM     16  H   UNL     1      11.479  11.310   5.803  0.00  0.00    +0.000 HD
BRANCH  13  17
ATOM     17  C   UNL     1      11.470  14.325   4.031  0.00  0.00    +0.000 C 
ATOM     18  H   UNL     1      12.330  14.774   3.518  0.00  0.00    +0.000 HD
ATOM     19  H   UNL     1      10.604  14.621   3.441  0.00  0.00    +0.000 HD
ATOM     20  H   UNL     1      11.406  14.822   5.001  0.00  0.00    +0.000 HD
ENDBRANCH  13  17
BRANCH  13  21
ATOM     21  C   UNL     1      11.121  12.002   3.180  0.00  0.00    +0.000 C 
ATOM     22  H   UNL     1      11.284  10.944   3.413  0.00  0.00    +0.000 HD
ATOM     23  H   UNL     1      10.042  12.178   3.119  0.00  0.00    +0.000 HD
ATOM     24  H   UNL     1      11.541  12.191   2.185  0.00  0.00    +0.000 HD
ENDBRANCH  13  21
BRANCH  14  25
ATOM     25  C   UNL     1      11.615  13.210   6.792  0.00  0.00    +0.000 C 
ATOM     26  H   UNL     1      11.617  14.285   6.602  0.00  0.00    +0.000 HD
ATOM     27  H   UNL     1      12.390  12.987   7.525  0.00  0.00    +0.000 HD
BRANCH  25  28
ATOM     28  C   UNL     1      10.367  12.830   7.594  0.00  0.00    +0.000 C 
ATOM     29  H   UNL     1      10.512  11.848   8.058  0.00  0.00    +0.000 HD
ATOM     30  H   UNL     1      10.195  13.559   8.393  0.00  0.00    +0.000 HD
BRANCH  28  32
ATOM     31  O   UNL     1       8.638  13.736   6.166  0.00  0.00    +0.000 OA
ATOM     32  C   UNL     1       9.112  12.757   6.741  0.00  0.00    +0.000 C 
BRANCH  32  33
ATOM     33  C   UNL     1       8.464  11.402   6.631  0.00  0.00    +0.000 C 
ATOM     34  H   UNL     1       8.365  11.127   5.578  0.00  0.00    +0.000 HD
ATOM     35  H   UNL     1       7.481  11.426   7.110  0.00  0.00    +0.000 HD
ATOM     36  H   UNL     1       9.083  10.654   7.135  0.00  0.00    +0.000 HD
ENDBRANCH  32  33
ENDBRANCH  28  32
ENDBRANCH  25  28
ENDBRANCH  14  25
ENDBRANCH   2  12
BRANCH   3  37
ATOM     37  C   UNL     1      15.508  12.877   3.147  0.00  0.00    +0.000 C 
ATOM     38  H   UNL     1      16.464  13.107   2.663  0.00  0.00    +0.000 HD
ATOM     39  H   UNL     1      15.569  11.892   3.617  0.00  0.00    +0.000 HD
ATOM     40  H   UNL     1      14.791  12.731   2.328  0.00  0.00    +0.000 HD
ENDBRANCH   3  37
BRANCH   3  41
ATOM     41  C   UNL     1      14.384  15.110   3.220  0.00  0.00    +0.000 C 
ATOM     42  H   UNL     1      13.318  14.888   3.163  0.00  0.00    +0.000 HD
BRANCH  41  43
ATOM     43  C   UNL     1      14.954  15.081   1.812  0.00  0.00    +0.000 A 
ATOM     44  C   UNL     1      14.219  14.507   0.773  0.00  0.00    +0.000 A 
ATOM     45  C   UNL     1      16.212  15.628   1.556  0.00  0.00    +0.000 A 
ATOM     46  C   UNL     1      14.742  14.482  -0.520  0.00  0.00    +0.000 A 
ATOM     47  C   UNL     1      16.734  15.602   0.264  0.00  0.00    +0.000 A 
ATOM     48  C   UNL     1      15.999  15.029  -0.774  0.00  0.00    +0.000 A 
BRANCH  46  50
ATOM     49  O   UNL     1      14.481  13.157  -2.462  0.00  0.00    +0.000 OA
ATOM     50  C   UNL     1      13.974  13.883  -1.605  0.00  0.00    +0.000 C 
ATOM     51  H   UNL     1      12.892  14.089  -1.638  0.00  0.00    +0.000 HD
ENDBRANCH  46  50
BRANCH  47  53
ATOM     52  O   UNL     1      18.903  15.602  -0.682  0.00  0.00    +0.000 OA
ATOM     53  C   UNL     1      18.049  16.174  -0.003  0.00  0.00    +0.000 C 
ATOM     54  H   UNL     1      18.273  17.162   0.430  0.00  0.00    +0.000 HD
ENDBRANCH  47  53
BRANCH  48  55
ATOM     55  O   UNL     1      16.511  15.004  -2.040  0.00  0.00    +0.000 OA
ATOM     56  H   UNL     1      16.216  14.205  -2.505  0.00  0.00    +0.000 HD
ENDBRANCH  48  55
BRANCH  45  57
ATOM     57  O   UNL     1      16.928  16.188   2.574  0.00  0.00    +0.000 OA
ATOM     58  H   UNL     1      16.373  16.773   3.112  0.00  0.00    +0.000 HD
ENDBRANCH  45  57
BRANCH  44  59
ATOM     59  O   UNL     1      12.990  13.974   1.027  0.00  0.00    +0.000 OA
ATOM     60  H   UNL     1      12.729  14.124   1.950  0.00  0.00    +0.000 HD
ENDBRANCH  44  59
ENDBRANCH  41  43
BRANCH  41  61
ATOM     61  C   UNL     1      14.542  16.482   3.915  0.00  0.00    +0.000 C 
ATOM     62  H   UNL     1      14.637  16.350   4.999  0.00  0.00    +0.000 HD
ATOM     63  H   UNL     1      15.429  17.024   3.575  0.00  0.00    +0.000 HD
BRANCH  61  64
ATOM     64  C   UNL     1      13.386  17.480   3.684  0.00  0.00    +0.000 C 
ATOM     65  H   UNL     1      12.429  16.960   3.812  0.00  0.00    +0.000 HD
BRANCH  64  66
ATOM     66  C   UNL     1      13.427  18.656   4.660  0.00  0.00    +0.000 C 
ATOM     67  H   UNL     1      14.388  19.175   4.633  0.00  0.00    +0.000 HD
ATOM     68  H   UNL     1      13.287  18.305   5.689  0.00  0.00    +0.000 HD
ATOM     69  H   UNL     1      12.630  19.375   4.447  0.00  0.00    +0.000 HD
ENDBRANCH  64  66
BRANCH  64  70
ATOM     70  C   UNL     1      13.439  18.004   2.246  0.00  0.00    +0.000 C 
ATOM     71  H   UNL     1      13.252  19.083   2.208  0.00  0.00    +0.000 HD
ATOM     72  H   UNL     1      12.687  17.508   1.623  0.00  0.00    +0.000 HD
ATOM     73  H   UNL     1      14.420  17.814   1.796  0.00  0.00    +0.000 HD
ENDBRANCH  64  70
ENDBRANCH  61  64
ENDBRANCH  41  61
ENDBRANCH   3  41
TORSDOF 19
ENDMDL
MODEL 9
REMARK VINA RESULT:    -5.323     10.016     13.989
REMARK INTER + INTRA:         -11.200
REMARK INTER:                  -9.651
REMARK INTRA:                  -1.548
REMARK UNBOUND:                -1.365
REMARK  Name = 10390702
REMARK  19 active torsions:
REMARK  status: ('A' for Active; 'I' for Inactive)
REMARK    1  A    between atoms: O_3  and  C_26
REMARK    2  A    between atoms: O_4  and  C_27
REMARK    3  A    between atoms: O_5  and  C_33
REMARK    4  A    between atoms: C_8  and  C_11
REMARK    5  A    between atoms: C_9  and  C_14
REMARK    6  A    between atoms: C_9  and  C_15
REMARK    7  A    between atoms: C_10  and  C_13
REMARK    8  A    between atoms: C_12  and  C_18
REMARK    9  A    between atoms: C_12  and  C_20
REMARK   10  A    between atoms: C_13  and  C_21
REMARK   11  A    between atoms: C_18  and  C_22
REMARK   12  A    between atoms: C_18  and  C_23
REMARK   13  A    between atoms: C_21  and  C_25
REMARK   14  A    between atoms: C_22  and  C_24
REMARK   15  A    between atoms: C_24  and  C_28
REMARK   16  A    between atoms: C_24  and  C_29
REMARK   17  A    between atoms: C_25  and  C_30
REMARK   18  A    between atoms: C_31  and  C_35
REMARK   19  A    between atoms: C_32  and  C_34
REMARK                            x       y       z     vdW  Elec       q    Type
REMARK                         _______ _______ _______ _____ _____    ______ ____
ROOT
ATOM      1  O   UNL     1       2.450   0.872 -19.076  0.00  0.00    +0.000 OA
ATOM      2  C   UNL     1       2.301  -0.642 -17.182  0.00  0.00    +0.000 C 
ATOM      3  C   UNL     1       1.431  -0.417 -15.918  0.00  0.00    +0.000 C 
ATOM      4  C   UNL     1       1.642   1.086 -15.637  0.00  0.00    +0.000 C 
ATOM      5  C   UNL     1       2.159   0.686 -17.901  0.00  0.00    +0.000 C 
ATOM      6  C   UNL     1       1.614   1.765 -17.002  0.00  0.00    +0.000 C 
ATOM      7  H   UNL     1       3.346  -0.633 -16.875  0.00  0.00    +0.000 HD
ATOM      8  H   UNL     1       0.830   1.596 -15.127  0.00  0.00    +0.000 HD
ATOM      9  H   UNL     1       2.596   1.388 -15.204  0.00  0.00    +0.000 HD
ATOM     10  H   UNL     1       0.595   2.008 -17.318  0.00  0.00    +0.000 HD
ATOM     11  H   UNL     1       2.246   2.654 -17.030  0.00  0.00    +0.000 HD
ENDROOT
BRANCH   2  12
ATOM     12  C   UNL     1       1.940  -1.825 -18.025  0.00  0.00    +0.000 C 
ATOM     13  C   UNL     1       2.639  -3.139 -17.836  0.00  0.00    +0.000 C 
ATOM     14  C   UNL     1       2.919  -2.308 -19.054  0.00  0.00    +0.000 C 
ATOM     15  H   UNL     1       0.910  -1.823 -18.358  0.00  0.00    +0.000 HD
ATOM     16  H   UNL     1       2.512  -2.627 -20.008  0.00  0.00    +0.000 HD
BRANCH  13  17
ATOM     17  C   UNL     1       3.670  -3.220 -16.761  0.00  0.00    +0.000 C 
ATOM     18  H   UNL     1       4.479  -2.517 -16.998  0.00  0.00    +0.000 HD
ATOM     19  H   UNL     1       3.376  -2.979 -15.741  0.00  0.00    +0.000 HD
ATOM     20  H   UNL     1       4.126  -4.212 -16.758  0.00  0.00    +0.000 HD
ENDBRANCH  13  17
BRANCH  13  21
ATOM     21  C   UNL     1       1.869  -4.401 -18.027  0.00  0.00    +0.000 C 
ATOM     22  H   UNL     1       2.539  -5.226 -18.294  0.00  0.00    +0.000 HD
ATOM     23  H   UNL     1       1.340  -4.673 -17.107  0.00  0.00    +0.000 HD
ATOM     24  H   UNL     1       1.120  -4.313 -18.822  0.00  0.00    +0.000 HD
ENDBRANCH  13  21
BRANCH  14  25
ATOM     25  C   UNL     1       4.213  -1.596 -19.201  0.00  0.00    +0.000 C 
ATOM     26  H   UNL     1       4.611  -1.109 -18.309  0.00  0.00    +0.000 HD
ATOM     27  H   UNL     1       4.099  -0.844 -19.983  0.00  0.00    +0.000 HD
BRANCH  25  28
ATOM     28  C   UNL     1       5.292  -2.480 -19.833  0.00  0.00    +0.000 C 
ATOM     29  H   UNL     1       5.057  -3.535 -19.651  0.00  0.00    +0.000 HD
ATOM     30  H   UNL     1       5.322  -2.323 -20.917  0.00  0.00    +0.000 HD
BRANCH  28  32
ATOM     31  O   UNL     1       7.681  -2.812 -19.664  0.00  0.00    +0.000 OA
ATOM     32  C   UNL     1       6.680  -2.212 -19.277  0.00  0.00    +0.000 C 
BRANCH  32  33
ATOM     33  C   UNL     1       6.772  -1.155 -18.208  0.00  0.00    +0.000 C 
ATOM     34  H   UNL     1       6.018  -0.385 -18.387  0.00  0.00    +0.000 HD
ATOM     35  H   UNL     1       7.772  -0.714 -18.214  0.00  0.00    +0.000 HD
ATOM     36  H   UNL     1       6.591  -1.605 -17.227  0.00  0.00    +0.000 HD
ENDBRANCH  32  33
ENDBRANCH  28  32
ENDBRANCH  25  28
ENDBRANCH  14  25
ENDBRANCH   2  12
BRANCH   3  37
ATOM     37  C   UNL     1      -0.067  -0.709 -16.134  0.00  0.00    +0.000 C 
ATOM     38  H   UNL     1      -0.611   0.151 -16.543  0.00  0.00    +0.000 HD
ATOM     39  H   UNL     1      -0.280  -1.593 -16.741  0.00  0.00    +0.000 HD
ATOM     40  H   UNL     1      -0.549  -0.931 -15.172  0.00  0.00    +0.000 HD
ENDBRANCH   3  37
BRANCH   3  41
ATOM     41  C   UNL     1       1.932  -1.258 -14.737  0.00  0.00    +0.000 C 
ATOM     42  H   UNL     1       2.436  -2.129 -15.159  0.00  0.00    +0.000 HD
BRANCH  41  43
ATOM     43  C   UNL     1       0.761  -1.742 -13.899  0.00  0.00    +0.000 A 
ATOM     44  C   UNL     1       0.154  -0.880 -12.985  0.00  0.00    +0.000 A 
ATOM     45  C   UNL     1       0.292  -3.048 -14.043  0.00  0.00    +0.000 A 
ATOM     46  C   UNL     1      -0.922  -1.324 -12.216  0.00  0.00    +0.000 A 
ATOM     47  C   UNL     1      -0.783  -3.492 -13.274  0.00  0.00    +0.000 A 
ATOM     48  C   UNL     1      -1.390  -2.630 -12.361  0.00  0.00    +0.000 A 
BRANCH  46  50
ATOM     49  O   UNL     1      -1.701  -0.705 -10.070  0.00  0.00    +0.000 OA
ATOM     50  C   UNL     1      -1.557  -0.423 -11.261  0.00  0.00    +0.000 C 
ATOM     51  H   UNL     1      -1.906   0.552 -11.635  0.00  0.00    +0.000 HD
ENDBRANCH  46  50
BRANCH  47  53
ATOM     52  O   UNL     1      -1.187  -5.702 -12.532  0.00  0.00    +0.000 OA
ATOM     53  C   UNL     1      -1.272  -4.857 -13.425  0.00  0.00    +0.000 C 
ATOM     54  H   UNL     1      -1.735  -5.130 -14.387  0.00  0.00    +0.000 HD
ENDBRANCH  47  53
BRANCH  48  55
ATOM     55  O   UNL     1      -2.443  -3.065 -11.608  0.00  0.00    +0.000 OA
ATOM     56  H   UNL     1      -2.129  -3.385 -10.747  0.00  0.00    +0.000 HD
ENDBRANCH  48  55
BRANCH  45  57
ATOM     57  O   UNL     1       0.889  -3.888 -14.938  0.00  0.00    +0.000 OA
ATOM     58  H   UNL     1       1.835  -3.698 -15.020  0.00  0.00    +0.000 HD
ENDBRANCH  45  57
BRANCH  44  59
ATOM     59  O   UNL     1       0.615   0.397 -12.848  0.00  0.00    +0.000 OA
ATOM     60  H   UNL     1       0.024   0.922 -12.284  0.00  0.00    +0.000 HD
ENDBRANCH  44  59
ENDBRANCH  41  43
BRANCH  41  61
ATOM     61  C   UNL     1       2.978  -0.461 -13.922  0.00  0.00    +0.000 C 
ATOM     62  H   UNL     1       3.201   0.491 -14.419  0.00  0.00    +0.000 HD
ATOM     63  H   UNL     1       2.631  -0.226 -12.912  0.00  0.00    +0.000 HD
BRANCH  61  64
ATOM     64  C   UNL     1       4.327  -1.175 -13.695  0.00  0.00    +0.000 C 
ATOM     65  H   UNL     1       4.811  -0.761 -12.803  0.00  0.00    +0.000 HD
BRANCH  64  66
ATOM     66  C   UNL     1       4.163  -2.682 -13.494  0.00  0.00    +0.000 C 
ATOM     67  H   UNL     1       3.792  -3.175 -14.395  0.00  0.00    +0.000 HD
ATOM     68  H   UNL     1       3.434  -2.886 -12.701  0.00  0.00    +0.000 HD
ATOM     69  H   UNL     1       5.109  -3.148 -13.199  0.00  0.00    +0.000 HD
ENDBRANCH  64  66
BRANCH  64  70
ATOM     70  C   UNL     1       5.254  -0.915 -14.886  0.00  0.00    +0.000 C 
ATOM     71  H   UNL     1       4.842  -0.147 -15.551  0.00  0.00    +0.000 HD
ATOM     72  H   UNL     1       5.399  -1.828 -15.473  0.00  0.00    +0.000 HD
ATOM     73  H   UNL     1       6.240  -0.577 -14.549  0.00  0.00    +0.000 HD
ENDBRANCH  64  70
ENDBRANCH  61  64
ENDBRANCH  41  61
ENDBRANCH   3  41
TORSDOF 19
ENDMDL
MODEL 10
REMARK VINA RESULT:    -5.302      6.110     10.359
REMARK INTER + INTRA:         -11.161
REMARK INTER:                  -9.796
REMARK INTRA:                  -1.365
REMARK UNBOUND:                -1.365
REMARK  Name = 10390702
REMARK  19 active torsions:
REMARK  status: ('A' for Active; 'I' for Inactive)
REMARK    1  A    between atoms: O_3  and  C_26
REMARK    2  A    between atoms: O_4  and  C_27
REMARK    3  A    between atoms: O_5  and  C_33
REMARK    4  A    between atoms: C_8  and  C_11
REMARK    5  A    between atoms: C_9  and  C_14
REMARK    6  A    between atoms: C_9  and  C_15
REMARK    7  A    between atoms: C_10  and  C_13
REMARK    8  A    between atoms: C_12  and  C_18
REMARK    9  A    between atoms: C_12  and  C_20
REMARK   10  A    between atoms: C_13  and  C_21
REMARK   11  A    between atoms: C_18  and  C_22
REMARK   12  A    between atoms: C_18  and  C_23
REMARK   13  A    between atoms: C_21  and  C_25
REMARK   14  A    between atoms: C_22  and  C_24
REMARK   15  A    between atoms: C_24  and  C_28
REMARK   16  A    between atoms: C_24  and  C_29
REMARK   17  A    between atoms: C_25  and  C_30
REMARK   18  A    between atoms: C_31  and  C_35
REMARK   19  A    between atoms: C_32  and  C_34
REMARK                            x       y       z     vdW  Elec       q    Type
REMARK                         _______ _______ _______ _____ _____    ______ ____
ROOT
ATOM      1  O   UNL     1     -12.821   5.448  -7.398  0.00  0.00    +0.000 OA
ATOM      2  C   UNL     1     -10.523   4.805  -7.852  0.00  0.00    +0.000 C 
ATOM      3  C   UNL     1      -9.619   5.416  -8.955  0.00  0.00    +0.000 C 
ATOM      4  C   UNL     1     -10.593   5.537 -10.147  0.00  0.00    +0.000 C 
ATOM      5  C   UNL     1     -11.869   5.427  -8.169  0.00  0.00    +0.000 C 
ATOM      6  C   UNL     1     -11.909   6.024  -9.552  0.00  0.00    +0.000 C 
ATOM      7  H   UNL     1     -10.684   3.756  -8.095  0.00  0.00    +0.000 HD
ATOM      8  H   UNL     1     -10.378   6.325 -10.863  0.00  0.00    +0.000 HD
ATOM      9  H   UNL     1     -10.857   4.621 -10.676  0.00  0.00    +0.000 HD
ATOM     10  H   UNL     1     -11.942   7.114  -9.465  0.00  0.00    +0.000 HD
ATOM     11  H   UNL     1     -12.773   5.658 -10.111  0.00  0.00    +0.000 HD
ENDROOT
BRANCH   2  12
ATOM     12  C   UNL     1     -10.074   5.025  -6.442  0.00  0.00    +0.000 C 
ATOM     13  C   UNL     1      -9.093   4.090  -5.797  0.00  0.00    +0.000 C 
ATOM     14  C   UNL     1     -10.534   4.072  -5.377  0.00  0.00    +0.000 C 
ATOM     15  H   UNL     1     -10.082   6.064  -6.140  0.00  0.00    +0.000 HD
ATOM     16  H   UNL     1     -10.803   4.500  -4.418  0.00  0.00    +0.000 HD
BRANCH  13  17
ATOM     17  C   UNL     1      -8.566   2.969  -6.628  0.00  0.00    +0.000 C 
ATOM     18  H   UNL     1      -9.381   2.259  -6.816  0.00  0.00    +0.000 HD
ATOM     19  H   UNL     1      -8.159   3.199  -7.611  0.00  0.00    +0.000 HD
ATOM     20  H   UNL     1      -7.810   2.416  -6.067  0.00  0.00    +0.000 HD
ENDBRANCH  13  17
BRANCH  13  21
ATOM     21  C   UNL     1      -8.101   4.639  -4.829  0.00  0.00    +0.000 C 
ATOM     22  H   UNL     1      -7.097   4.259  -5.047  0.00  0.00    +0.000 HD
ATOM     23  H   UNL     1      -8.074   5.732  -4.883  0.00  0.00    +0.000 HD
ATOM     24  H   UNL     1      -8.339   4.368  -3.793  0.00  0.00    +0.000 HD
ENDBRANCH  13  21
BRANCH  14  25
ATOM     25  C   UNL     1     -11.418   2.943  -5.761  0.00  0.00    +0.000 C 
ATOM     26  H   UNL     1     -10.973   1.947  -5.759  0.00  0.00    +0.000 HD
ATOM     27  H   UNL     1     -11.811   3.144  -6.758  0.00  0.00    +0.000 HD
BRANCH  25  28
ATOM     28  C   UNL     1     -12.720   2.929  -4.956  0.00  0.00    +0.000 C 
ATOM     29  H   UNL     1     -12.610   3.558  -4.065  0.00  0.00    +0.000 HD
ATOM     30  H   UNL     1     -13.541   3.336  -5.557  0.00  0.00    +0.000 HD
BRANCH  28  32
ATOM     31  O   UNL     1     -13.597   1.315  -3.382  0.00  0.00    +0.000 OA
ATOM     32  C   UNL     1     -13.117   1.538  -4.493  0.00  0.00    +0.000 C 
BRANCH  32  33
ATOM     33  C   UNL     1     -12.890   0.422  -5.479  0.00  0.00    +0.000 C 
ATOM     34  H   UNL     1     -12.729  -0.515  -4.941  0.00  0.00    +0.000 HD
ATOM     35  H   UNL     1     -12.022   0.655  -6.102  0.00  0.00    +0.000 HD
ATOM     36  H   UNL     1     -13.768   0.314  -6.123  0.00  0.00    +0.000 HD
ENDBRANCH  32  33
ENDBRANCH  28  32
ENDBRANCH  25  28
ENDBRANCH  14  25
ENDBRANCH   2  12
BRANCH   3  37
ATOM     37  C   UNL     1      -9.050   6.802  -8.596  0.00  0.00    +0.000 C 
ATOM     38  H   UNL     1      -9.816   7.491  -8.222  0.00  0.00    +0.000 HD
ATOM     39  H   UNL     1      -8.208   6.786  -7.899  0.00  0.00    +0.000 HD
ATOM     40  H   UNL     1      -8.636   7.282  -9.493  0.00  0.00    +0.000 HD
ENDBRANCH   3  37
BRANCH   3  41
ATOM     41  C   UNL     1      -8.456   4.480  -9.308  0.00  0.00    +0.000 C 
ATOM     42  H   UNL     1      -8.115   4.033  -8.373  0.00  0.00    +0.000 HD
BRANCH  41  43
ATOM     43  C   UNL     1      -7.307   5.271  -9.908  0.00  0.00    +0.000 A 
ATOM     44  C   UNL     1      -7.340   5.639 -11.254  0.00  0.00    +0.000 A 
ATOM     45  C   UNL     1      -6.216   5.630  -9.114  0.00  0.00    +0.000 A 
ATOM     46  C   UNL     1      -6.285   6.365 -11.805  0.00  0.00    +0.000 A 
ATOM     47  C   UNL     1      -5.161   6.355  -9.665  0.00  0.00    +0.000 A 
ATOM     48  C   UNL     1      -5.196   6.724 -11.011  0.00  0.00    +0.000 A 
BRANCH  46  50
ATOM     49  O   UNL     1      -6.185   7.915 -13.589  0.00  0.00    +0.000 OA
ATOM     50  C   UNL     1      -6.320   6.750 -13.211  0.00  0.00    +0.000 C 
ATOM     51  H   UNL     1      -6.463   5.950 -13.954  0.00  0.00    +0.000 HD
ENDBRANCH  46  50
BRANCH  47  53
ATOM     52  O   UNL     1      -2.861   6.723  -9.249  0.00  0.00    +0.000 OA
ATOM     53  C   UNL     1      -4.022   6.730  -8.835  0.00  0.00    +0.000 C 
ATOM     54  H   UNL     1      -4.226   7.029  -7.794  0.00  0.00    +0.000 HD
ENDBRANCH  47  53
BRANCH  48  55
ATOM     55  O   UNL     1      -4.162   7.435 -11.550  0.00  0.00    +0.000 OA
ATOM     56  H   UNL     1      -4.084   8.297 -11.112  0.00  0.00    +0.000 HD
ENDBRANCH  48  55
BRANCH  45  57
ATOM     57  O   UNL     1      -6.187   5.268  -7.799  0.00  0.00    +0.000 OA
ATOM     58  H   UNL     1      -5.300   5.378  -7.425  0.00  0.00    +0.000 HD
ENDBRANCH  45  57
BRANCH  44  59
ATOM     59  O   UNL     1      -8.408   5.287 -12.026  0.00  0.00    +0.000 OA
ATOM     60  H   UNL     1      -8.124   5.043 -12.922  0.00  0.00    +0.000 HD
ENDBRANCH  44  59
ENDBRANCH  41  43
BRANCH  41  61
ATOM     61  C   UNL     1      -8.952   3.335 -10.222  0.00  0.00    +0.000 C 
ATOM     62  H   UNL     1      -9.947   3.000  -9.904  0.00  0.00    +0.000 HD
ATOM     63  H   UNL     1      -9.031   3.640 -11.269  0.00  0.00    +0.000 HD
BRANCH  61  64
ATOM     64  C   UNL     1      -8.050   2.083 -10.266  0.00  0.00    +0.000 C 
ATOM     65  H   UNL     1      -7.146   2.268  -9.675  0.00  0.00    +0.000 HD
BRANCH  64  66
ATOM     66  C   UNL     1      -8.745   0.843  -9.703  0.00  0.00    +0.000 C 
ATOM     67  H   UNL     1      -8.835   0.885  -8.615  0.00  0.00    +0.000 HD
ATOM     68  H   UNL     1      -8.167  -0.059  -9.936  0.00  0.00    +0.000 HD
ATOM     69  H   UNL     1      -9.742   0.716 -10.136  0.00  0.00    +0.000 HD
ENDBRANCH  64  66
BRANCH  64  70
ATOM     70  C   UNL     1      -7.613   1.815 -11.710  0.00  0.00    +0.000 C 
ATOM     71  H   UNL     1      -7.546   2.745 -12.285  0.00  0.00    +0.000 HD
ATOM     72  H   UNL     1      -8.325   1.154 -12.215  0.00  0.00    +0.000 HD
ATOM     73  H   UNL     1      -6.632   1.328 -11.737  0.00  0.00    +0.000 HD
ENDBRANCH  64  70
ENDBRANCH  61  64
ENDBRANCH  41  61
ENDBRANCH   3  41
TORSDOF 19
ENDMDL
