MODEL 1
REMARK VINA RESULT:    -5.634      0.000      0.000
REMARK INTER + INTRA:          -7.142
REMARK INTER:                  -6.896
REMARK INTRA:                  -0.246
REMARK UNBOUND:                -0.190
REMARK  Name = 3314
REMARK  5 active torsions:
REMARK  status: ('A' for Active; 'I' for Inactive)
REMARK    1  A    between atoms: O_1  and  C_6
REMARK    2  A    between atoms: O_1  and  C_11
REMARK    3  A    between atoms: O_2  and  C_8
REMARK    4  A    between atoms: C_3  and  C_4
REMARK    5  A    between atoms: C_4  and  C_10
REMARK                            x       y       z     vdW  Elec       q    Type
REMARK                         _______ _______ _______ _____ _____    ______ ____
ROOT
ATOM      1  C   UNL     1       5.430   8.556   1.869  0.00  0.00    +0.000 A 
ATOM      2  C   UNL     1       5.891   9.469   0.919  0.00  0.00    +0.000 A 
ATOM      3  C   UNL     1       5.065  10.509   0.493  0.00  0.00    +0.000 A 
ATOM      4  C   UNL     1       4.143   8.684   2.391  0.00  0.00    +0.000 A 
ATOM      5  C   UNL     1       3.778  10.636   1.017  0.00  0.00    +0.000 A 
ATOM      6  C   UNL     1       3.317   9.724   1.966  0.00  0.00    +0.000 A 
ATOM      7  H   UNL     1       6.893   9.375   0.508  0.00  0.00    +0.000 HD
ATOM      8  H   UNL     1       3.773   7.980   3.133  0.00  0.00    +0.000 HD
ATOM      9  H   UNL     1       2.317   9.812   2.382  0.00  0.00    +0.000 HD
ENDROOT
BRANCH   1  10
ATOM     10  C   UNL     1       6.314   7.445   2.324  0.00  0.00    +0.000 C 
ATOM     11  H   UNL     1       6.356   6.664   1.553  0.00  0.00    +0.000 HD
ATOM     12  H   UNL     1       7.345   7.808   2.415  0.00  0.00    +0.000 HD
BRANCH  10  13
ATOM     13  C   UNL     1       5.853   6.814   3.613  0.00  0.00    +0.000 C 
ATOM     14  C   UNL     1       6.435   7.020   4.800  0.00  0.00    +0.000 C 
ATOM     15  H   UNL     1       5.002   6.139   3.563  0.00  0.00    +0.000 HD
ATOM     16  H   UNL     1       6.058   6.527   5.689  0.00  0.00    +0.000 HD
ATOM     17  H   UNL     1       7.291   7.677   4.905  0.00  0.00    +0.000 HD
ENDBRANCH  10  13
ENDBRANCH   1  10
BRANCH   5  18
ATOM     18  O   UNL     1       2.961  11.647   0.607  0.00  0.00    +0.000 OA
ATOM     19  H   UNL     1       3.277  11.983  -0.250  0.00  0.00    +0.000 HD
ENDBRANCH   5  18
BRANCH   3  20
ATOM     20  O   UNL     1       5.525  11.394  -0.435  0.00  0.00    +0.000 OA
BRANCH  20  21
ATOM     21  C   UNL     1       6.722  11.044  -1.127  0.00  0.00    +0.000 C 
ATOM     22  H   UNL     1       7.599  11.421  -0.591  0.00  0.00    +0.000 HD
ATOM     23  H   UNL     1       6.707  11.439  -2.147  0.00  0.00    +0.000 HD
ATOM     24  H   UNL     1       6.783   9.953  -1.176  0.00  0.00    +0.000 HD
ENDBRANCH  20  21
ENDBRANCH   3  20
TORSDOF 5
ENDMDL
MODEL 2
REMARK VINA RESULT:    -5.471      1.835      4.126
REMARK INTER + INTRA:          -6.940
REMARK INTER:                  -6.731
REMARK INTRA:                  -0.210
REMARK UNBOUND:                -0.190
REMARK  Name = 3314
REMARK  5 active torsions:
REMARK  status: ('A' for Active; 'I' for Inactive)
REMARK    1  A    between atoms: O_1  and  C_6
REMARK    2  A    between atoms: O_1  and  C_11
REMARK    3  A    between atoms: O_2  and  C_8
REMARK    4  A    between atoms: C_3  and  C_4
REMARK    5  A    between atoms: C_4  and  C_10
REMARK                            x       y       z     vdW  Elec       q    Type
REMARK                         _______ _______ _______ _____ _____    ______ ____
ROOT
ATOM      1  C   UNL     1       5.872  10.716  -0.271  0.00  0.00    +0.000 A 
ATOM      2  C   UNL     1       6.032   9.573   0.513  0.00  0.00    +0.000 A 
ATOM      3  C   UNL     1       5.040   9.206   1.422  0.00  0.00    +0.000 A 
ATOM      4  C   UNL     1       4.720  11.491  -0.146  0.00  0.00    +0.000 A 
ATOM      5  C   UNL     1       3.887   9.981   1.546  0.00  0.00    +0.000 A 
ATOM      6  C   UNL     1       3.727  11.124   0.762  0.00  0.00    +0.000 A 
ATOM      7  H   UNL     1       6.929   8.964   0.421  0.00  0.00    +0.000 HD
ATOM      8  H   UNL     1       4.582  12.383  -0.753  0.00  0.00    +0.000 HD
ATOM      9  H   UNL     1       2.834  11.737   0.848  0.00  0.00    +0.000 HD
ENDROOT
BRANCH   1  10
ATOM     10  C   UNL     1       6.934  11.107  -1.243  0.00  0.00    +0.000 C 
ATOM     11  H   UNL     1       6.479  11.352  -2.211  0.00  0.00    +0.000 HD
ATOM     12  H   UNL     1       7.412  12.037  -0.910  0.00  0.00    +0.000 HD
BRANCH  10  13
ATOM     13  C   UNL     1       7.962  10.026  -1.460  0.00  0.00    +0.000 C 
ATOM     14  C   UNL     1       9.279  10.198  -1.300  0.00  0.00    +0.000 C 
ATOM     15  H   UNL     1       7.601   9.052  -1.783  0.00  0.00    +0.000 HD
ATOM     16  H   UNL     1       9.966   9.379  -1.481  0.00  0.00    +0.000 HD
ATOM     17  H   UNL     1       9.692  11.150  -0.987  0.00  0.00    +0.000 HD
ENDBRANCH  10  13
ENDBRANCH   1  10
BRANCH   5  18
ATOM     18  O   UNL     1       2.911   9.634   2.431  0.00  0.00    +0.000 OA
ATOM     19  H   UNL     1       3.313   9.485   3.304  0.00  0.00    +0.000 HD
ENDBRANCH   5  18
BRANCH   3  20
ATOM     20  O   UNL     1       5.207   8.088   2.183  0.00  0.00    +0.000 OA
BRANCH  20  21
ATOM     21  C   UNL     1       6.464   7.932   2.837  0.00  0.00    +0.000 C 
ATOM     22  H   UNL     1       7.040   7.124   2.375  0.00  0.00    +0.000 HD
ATOM     23  H   UNL     1       6.321   7.729   3.903  0.00  0.00    +0.000 HD
ATOM     24  H   UNL     1       7.024   8.866   2.732  0.00  0.00    +0.000 HD
ENDBRANCH  20  21
ENDBRANCH   3  20
TORSDOF 5
ENDMDL
MODEL 3
REMARK VINA RESULT:    -5.454     13.695     14.786
REMARK INTER + INTRA:          -6.920
REMARK INTER:                  -6.725
REMARK INTRA:                  -0.195
REMARK UNBOUND:                -0.190
REMARK  Name = 3314
REMARK  5 active torsions:
REMARK  status: ('A' for Active; 'I' for Inactive)
REMARK    1  A    between atoms: O_1  and  C_6
REMARK    2  A    between atoms: O_1  and  C_11
REMARK    3  A    between atoms: O_2  and  C_8
REMARK    4  A    between atoms: C_3  and  C_4
REMARK    5  A    between atoms: C_4  and  C_10
REMARK                            x       y       z     vdW  Elec       q    Type
REMARK                         _______ _______ _______ _____ _____    ______ ____
ROOT
ATOM      1  C   UNL     1      -2.956   7.547  -9.573  0.00  0.00    +0.000 A 
ATOM      2  C   UNL     1      -2.392   7.093 -10.766  0.00  0.00    +0.000 A 
ATOM      3  C   UNL     1      -1.619   7.955 -11.544  0.00  0.00    +0.000 A 
ATOM      4  C   UNL     1      -2.748   8.863  -9.159  0.00  0.00    +0.000 A 
ATOM      5  C   UNL     1      -1.410   9.270 -11.128  0.00  0.00    +0.000 A 
ATOM      6  C   UNL     1      -1.974   9.724  -9.936  0.00  0.00    +0.000 A 
ATOM      7  H   UNL     1      -2.551   6.069 -11.094  0.00  0.00    +0.000 HD
ATOM      8  H   UNL     1      -3.181   9.228  -8.231  0.00  0.00    +0.000 HD
ATOM      9  H   UNL     1      -1.819  10.746  -9.601  0.00  0.00    +0.000 HD
ENDROOT
BRANCH   1  10
ATOM     10  C   UNL     1      -3.783   6.625  -8.743  0.00  0.00    +0.000 C 
ATOM     11  H   UNL     1      -3.235   5.689  -8.570  0.00  0.00    +0.000 HD
ATOM     12  H   UNL     1      -3.927   7.057  -7.744  0.00  0.00    +0.000 HD
BRANCH  10  13
ATOM     13  C   UNL     1      -5.109   6.289  -9.375  0.00  0.00    +0.000 C 
ATOM     14  C   UNL     1      -6.130   5.720  -8.725  0.00  0.00    +0.000 C 
ATOM     15  H   UNL     1      -5.229   6.514 -10.433  0.00  0.00    +0.000 HD
ATOM     16  H   UNL     1      -7.056   5.497  -9.243  0.00  0.00    +0.000 HD
ATOM     17  H   UNL     1      -6.061   5.468  -7.673  0.00  0.00    +0.000 HD
ENDBRANCH  10  13
ENDBRANCH   1  10
BRANCH   5  18
ATOM     18  O   UNL     1      -0.657  10.122 -11.880  0.00  0.00    +0.000 OA
ATOM     19  H   UNL     1      -0.101   9.603 -12.486  0.00  0.00    +0.000 HD
ENDBRANCH   5  18
BRANCH   3  20
ATOM     20  O   UNL     1      -1.072   7.501 -12.706  0.00  0.00    +0.000 OA
BRANCH  20  21
ATOM     21  C   UNL     1      -1.973   7.180 -13.764  0.00  0.00    +0.000 C 
ATOM     22  H   UNL     1      -2.706   7.982 -13.900  0.00  0.00    +0.000 HD
ATOM     23  H   UNL     1      -2.485   6.234 -13.561  0.00  0.00    +0.000 HD
ATOM     24  H   UNL     1      -1.395   7.074 -14.686  0.00  0.00    +0.000 HD
ENDBRANCH  20  21
ENDBRANCH   3  20
TORSDOF 5
ENDMDL
MODEL 4
REMARK VINA RESULT:    -5.357     28.356     29.549
REMARK INTER + INTRA:          -6.800
REMARK INTER:                  -6.597
REMARK INTRA:                  -0.203
REMARK UNBOUND:                -0.190
REMARK  Name = 3314
REMARK  5 active torsions:
REMARK  status: ('A' for Active; 'I' for Inactive)
REMARK    1  A    between atoms: O_1  and  C_6
REMARK    2  A    between atoms: O_1  and  C_11
REMARK    3  A    between atoms: O_2  and  C_8
REMARK    4  A    between atoms: C_3  and  C_4
REMARK    5  A    between atoms: C_4  and  C_10
REMARK                            x       y       z     vdW  Elec       q    Type
REMARK                         _______ _______ _______ _____ _____    ______ ____
ROOT
ATOM      1  C   UNL     1     -20.838  -2.454   5.679  0.00  0.00    +0.000 A 
ATOM      2  C   UNL     1     -21.509  -2.970   6.788  0.00  0.00    +0.000 A 
ATOM      3  C   UNL     1     -21.834  -2.136   7.857  0.00  0.00    +0.000 A 
ATOM      4  C   UNL     1     -20.490  -1.104   5.640  0.00  0.00    +0.000 A 
ATOM      5  C   UNL     1     -21.486  -0.786   7.818  0.00  0.00    +0.000 A 
ATOM      6  C   UNL     1     -20.815  -0.269   6.710  0.00  0.00    +0.000 A 
ATOM      7  H   UNL     1     -21.783  -4.022   6.824  0.00  0.00    +0.000 HD
ATOM      8  H   UNL     1     -19.968  -0.690   4.782  0.00  0.00    +0.000 HD
ATOM      9  H   UNL     1     -20.539   0.780   6.666  0.00  0.00    +0.000 HD
ENDROOT
BRANCH   1  10
ATOM     10  C   UNL     1     -20.492  -3.347   4.536  0.00  0.00    +0.000 C 
ATOM     11  H   UNL     1     -21.407  -3.639   4.002  0.00  0.00    +0.000 HD
ATOM     12  H   UNL     1     -19.899  -2.790   3.799  0.00  0.00    +0.000 HD
BRANCH  10  13
ATOM     13  C   UNL     1     -19.772  -4.601   4.963  0.00  0.00    +0.000 C 
ATOM     14  C   UNL     1     -18.953  -5.303   4.172  0.00  0.00    +0.000 C 
ATOM     15  H   UNL     1     -19.948  -4.957   5.975  0.00  0.00    +0.000 HD
ATOM     16  H   UNL     1     -18.472  -6.202   4.540  0.00  0.00    +0.000 HD
ATOM     17  H   UNL     1     -18.749  -4.997   3.153  0.00  0.00    +0.000 HD
ENDBRANCH  10  13
ENDBRANCH   1  10
BRANCH   5  18
ATOM     18  O   UNL     1     -21.796   0.039   8.857  0.00  0.00    +0.000 OA
ATOM     19  H   UNL     1     -20.973   0.391   9.239  0.00  0.00    +0.000 HD
ENDBRANCH   5  18
BRANCH   3  20
ATOM     20  O   UNL     1     -22.489  -2.651   8.935  0.00  0.00    +0.000 OA
BRANCH  20  21
ATOM     21  C   UNL     1     -23.863  -2.987   8.758  0.00  0.00    +0.000 C 
ATOM     22  H   UNL     1     -24.311  -2.369   7.973  0.00  0.00    +0.000 HD
ATOM     23  H   UNL     1     -24.415  -2.860   9.695  0.00  0.00    +0.000 HD
ATOM     24  H   UNL     1     -23.924  -4.036   8.456  0.00  0.00    +0.000 HD
ENDBRANCH  20  21
ENDBRANCH   3  20
TORSDOF 5
ENDMDL
MODEL 5
REMARK VINA RESULT:    -5.123     16.115     17.529
REMARK INTER + INTRA:          -6.512
REMARK INTER:                  -6.284
REMARK INTRA:                  -0.228
REMARK UNBOUND:                -0.190
REMARK  Name = 3314
REMARK  5 active torsions:
REMARK  status: ('A' for Active; 'I' for Inactive)
REMARK    1  A    between atoms: O_1  and  C_6
REMARK    2  A    between atoms: O_1  and  C_11
REMARK    3  A    between atoms: O_2  and  C_8
REMARK    4  A    between atoms: C_3  and  C_4
REMARK    5  A    between atoms: C_4  and  C_10
REMARK                            x       y       z     vdW  Elec       q    Type
REMARK                         _______ _______ _______ _____ _____    ______ ____
ROOT
ATOM      1  C   UNL     1     -10.334   3.851  -5.634  0.00  0.00    +0.000 A 
ATOM      2  C   UNL     1     -10.551   5.189  -5.966  0.00  0.00    +0.000 A 
ATOM      3  C   UNL     1      -9.622   6.160  -5.593  0.00  0.00    +0.000 A 
ATOM      4  C   UNL     1      -9.188   3.486  -4.927  0.00  0.00    +0.000 A 
ATOM      5  C   UNL     1      -8.476   5.793  -4.887  0.00  0.00    +0.000 A 
ATOM      6  C   UNL     1      -8.259   4.456  -4.554  0.00  0.00    +0.000 A 
ATOM      7  H   UNL     1     -11.442   5.481  -6.517  0.00  0.00    +0.000 HD
ATOM      8  H   UNL     1      -9.007   2.447  -4.663  0.00  0.00    +0.000 HD
ATOM      9  H   UNL     1      -7.370   4.157  -4.005  0.00  0.00    +0.000 HD
ENDROOT
BRANCH   1  10
ATOM     10  C   UNL     1     -11.327   2.814  -6.034  0.00  0.00    +0.000 C 
ATOM     11  H   UNL     1     -11.886   3.156  -6.915  0.00  0.00    +0.000 HD
ATOM     12  H   UNL     1     -10.802   1.909  -6.364  0.00  0.00    +0.000 HD
BRANCH  10  13
ATOM     13  C   UNL     1     -12.315   2.490  -4.942  0.00  0.00    +0.000 C 
ATOM     14  C   UNL     1     -12.513   1.263  -4.448  0.00  0.00    +0.000 C 
ATOM     15  H   UNL     1     -12.910   3.311  -4.547  0.00  0.00    +0.000 HD
ATOM     16  H   UNL     1     -13.247   1.098  -3.667  0.00  0.00    +0.000 HD
ATOM     17  H   UNL     1     -11.953   0.409  -4.810  0.00  0.00    +0.000 HD
ENDBRANCH  10  13
ENDBRANCH   1  10
BRANCH   5  18
ATOM     18  O   UNL     1      -7.562   6.733  -4.515  0.00  0.00    +0.000 OA
ATOM     19  H   UNL     1      -7.716   7.546  -5.027  0.00  0.00    +0.000 HD
ENDBRANCH   5  18
BRANCH   3  20
ATOM     20  O   UNL     1      -9.844   7.463  -5.922  0.00  0.00    +0.000 OA
BRANCH  20  21
ATOM     21  C   UNL     1     -10.910   8.129  -5.250  0.00  0.00    +0.000 C 
ATOM     22  H   UNL     1     -11.876   7.825  -5.666  0.00  0.00    +0.000 HD
ATOM     23  H   UNL     1     -10.795   9.215  -5.325  0.00  0.00    +0.000 HD
ATOM     24  H   UNL     1     -10.879   7.847  -4.193  0.00  0.00    +0.000 HD
ENDBRANCH  20  21
ENDBRANCH   3  20
TORSDOF 5
ENDMDL
MODEL 6
REMARK VINA RESULT:    -5.025     13.363     15.017
REMARK INTER + INTRA:          -6.390
REMARK INTER:                  -6.149
REMARK INTRA:                  -0.242
REMARK UNBOUND:                -0.190
REMARK  Name = 3314
REMARK  5 active torsions:
REMARK  status: ('A' for Active; 'I' for Inactive)
REMARK    1  A    between atoms: O_1  and  C_6
REMARK    2  A    between atoms: O_1  and  C_11
REMARK    3  A    between atoms: O_2  and  C_8
REMARK    4  A    between atoms: C_3  and  C_4
REMARK    5  A    between atoms: C_4  and  C_10
REMARK                            x       y       z     vdW  Elec       q    Type
REMARK                         _______ _______ _______ _____ _____    ______ ____
ROOT
ATOM      1  C   UNL     1      -1.725   7.996 -11.512  0.00  0.00    +0.000 A 
ATOM      2  C   UNL     1      -2.438   7.119 -10.693  0.00  0.00    +0.000 A 
ATOM      3  C   UNL     1      -2.948   7.563  -9.473  0.00  0.00    +0.000 A 
ATOM      4  C   UNL     1      -1.522   9.316 -11.109  0.00  0.00    +0.000 A 
ATOM      5  C   UNL     1      -2.745   8.883  -9.072  0.00  0.00    +0.000 A 
ATOM      6  C   UNL     1      -2.033   9.760  -9.890  0.00  0.00    +0.000 A 
ATOM      7  H   UNL     1      -2.600   6.089 -11.001  0.00  0.00    +0.000 HD
ATOM      8  H   UNL     1      -0.970  10.009 -11.739  0.00  0.00    +0.000 HD
ATOM      9  H   UNL     1      -1.868  10.791  -9.589  0.00  0.00    +0.000 HD
ENDROOT
BRANCH   1  10
ATOM     10  C   UNL     1      -1.181   7.521 -12.816  0.00  0.00    +0.000 C 
ATOM     11  H   UNL     1      -0.209   7.033 -12.657  0.00  0.00    +0.000 HD
ATOM     12  H   UNL     1      -1.830   6.734 -13.221  0.00  0.00    +0.000 HD
BRANCH  10  13
ATOM     13  C   UNL     1      -0.997   8.631 -13.819  0.00  0.00    +0.000 C 
ATOM     14  C   UNL     1       0.177   8.959 -14.370  0.00  0.00    +0.000 C 
ATOM     15  H   UNL     1      -1.878   9.207 -14.093  0.00  0.00    +0.000 HD
ATOM     16  H   UNL     1       0.241   9.775 -15.081  0.00  0.00    +0.000 HD
ATOM     17  H   UNL     1       1.087   8.423 -14.127  0.00  0.00    +0.000 HD
ENDBRANCH  10  13
ENDBRANCH   1  10
BRANCH   5  18
ATOM     18  O   UNL     1      -3.237   9.328  -7.882  0.00  0.00    +0.000 OA
ATOM     19  H   UNL     1      -3.334   8.573  -7.276  0.00  0.00    +0.000 HD
ENDBRANCH   5  18
BRANCH   3  20
ATOM     20  O   UNL     1      -3.642   6.698  -8.682  0.00  0.00    +0.000 OA
BRANCH  20  21
ATOM     21  C   UNL     1      -4.947   6.324  -9.119  0.00  0.00    +0.000 C 
ATOM     22  H   UNL     1      -5.050   5.235  -9.133  0.00  0.00    +0.000 HD
ATOM     23  H   UNL     1      -5.153   6.733 -10.114  0.00  0.00    +0.000 HD
ATOM     24  H   UNL     1      -5.676   6.736  -8.415  0.00  0.00    +0.000 HD
ENDBRANCH  20  21
ENDBRANCH   3  20
TORSDOF 5
ENDMDL
MODEL 7
REMARK VINA RESULT:    -4.948     22.114     23.266
REMARK INTER + INTRA:          -6.296
REMARK INTER:                  -6.083
REMARK INTRA:                  -0.213
REMARK UNBOUND:                -0.190
REMARK  Name = 3314
REMARK  5 active torsions:
REMARK  status: ('A' for Active; 'I' for Inactive)
REMARK    1  A    between atoms: O_1  and  C_6
REMARK    2  A    between atoms: O_1  and  C_11
REMARK    3  A    between atoms: O_2  and  C_8
REMARK    4  A    between atoms: C_3  and  C_4
REMARK    5  A    between atoms: C_4  and  C_10
REMARK                            x       y       z     vdW  Elec       q    Type
REMARK                         _______ _______ _______ _____ _____    ______ ____
ROOT
ATOM      1  C   UNL     1       9.452  14.445 -21.167  0.00  0.00    +0.000 A 
ATOM      2  C   UNL     1      10.677  14.617 -20.520  0.00  0.00    +0.000 A 
ATOM      3  C   UNL     1      10.774  15.480 -19.429  0.00  0.00    +0.000 A 
ATOM      4  C   UNL     1       8.326  15.139 -20.723  0.00  0.00    +0.000 A 
ATOM      5  C   UNL     1       9.648  16.173 -18.985  0.00  0.00    +0.000 A 
ATOM      6  C   UNL     1       8.424  16.002 -19.632  0.00  0.00    +0.000 A 
ATOM      7  H   UNL     1      11.558  14.079 -20.861  0.00  0.00    +0.000 HD
ATOM      8  H   UNL     1       7.366  15.013 -21.218  0.00  0.00    +0.000 HD
ATOM      9  H   UNL     1       7.538  16.535 -19.296  0.00  0.00    +0.000 HD
ENDROOT
BRANCH   1  10
ATOM     10  C   UNL     1       9.349  13.521 -22.333  0.00  0.00    +0.000 C 
ATOM     11  H   UNL     1       9.361  14.099 -23.266  0.00  0.00    +0.000 HD
ATOM     12  H   UNL     1      10.243  12.887 -22.380  0.00  0.00    +0.000 HD
BRANCH  10  13
ATOM     13  C   UNL     1       8.098  12.681 -22.310  0.00  0.00    +0.000 C 
ATOM     14  C   UNL     1       7.997  11.468 -22.866  0.00  0.00    +0.000 C 
ATOM     15  H   UNL     1       7.222  13.102 -21.822  0.00  0.00    +0.000 HD
ATOM     16  H   UNL     1       7.064  10.919 -22.821  0.00  0.00    +0.000 HD
ATOM     17  H   UNL     1       8.837  11.005 -23.371  0.00  0.00    +0.000 HD
ENDBRANCH  10  13
ENDBRANCH   1  10
BRANCH   5  18
ATOM     18  O   UNL     1       9.731  17.021 -17.922  0.00  0.00    +0.000 OA
ATOM     19  H   UNL     1       8.870  17.048 -17.470  0.00  0.00    +0.000 HD
ENDBRANCH   5  18
BRANCH   3  20
ATOM     20  O   UNL     1      11.975  15.640 -18.805  0.00  0.00    +0.000 OA
BRANCH  20  21
ATOM     21  C   UNL     1      13.116  15.064 -19.438  0.00  0.00    +0.000 C 
ATOM     22  H   UNL     1      13.664  14.429 -18.735  0.00  0.00    +0.000 HD
ATOM     23  H   UNL     1      13.774  15.845 -19.831  0.00  0.00    +0.000 HD
ATOM     24  H   UNL     1      12.770  14.447 -20.272  0.00  0.00    +0.000 HD
ENDBRANCH  20  21
ENDBRANCH   3  20
TORSDOF 5
ENDMDL
MODEL 8
REMARK VINA RESULT:    -4.844     14.249     15.399
REMARK INTER + INTRA:          -6.167
REMARK INTER:                  -5.941
REMARK INTRA:                  -0.226
REMARK UNBOUND:                -0.190
REMARK  Name = 3314
REMARK  5 active torsions:
REMARK  status: ('A' for Active; 'I' for Inactive)
REMARK    1  A    between atoms: O_1  and  C_6
REMARK    2  A    between atoms: O_1  and  C_11
REMARK    3  A    between atoms: O_2  and  C_8
REMARK    4  A    between atoms: C_3  and  C_4
REMARK    5  A    between atoms: C_4  and  C_10
REMARK                            x       y       z     vdW  Elec       q    Type
REMARK                         _______ _______ _______ _____ _____    ______ ____
ROOT
ATOM      1  C   UNL     1      -2.475   8.005 -10.710  0.00  0.00    +0.000 A 
ATOM      2  C   UNL     1      -2.365   9.179 -11.457  0.00  0.00    +0.000 A 
ATOM      3  C   UNL     1      -1.859   9.135 -12.756  0.00  0.00    +0.000 A 
ATOM      4  C   UNL     1      -2.079   6.787 -11.264  0.00  0.00    +0.000 A 
ATOM      5  C   UNL     1      -1.465   7.916 -13.309  0.00  0.00    +0.000 A 
ATOM      6  C   UNL     1      -1.574   6.743 -12.563  0.00  0.00    +0.000 A 
ATOM      7  H   UNL     1      -2.671  10.131 -11.031  0.00  0.00    +0.000 HD
ATOM      8  H   UNL     1      -2.161   5.866 -10.693  0.00  0.00    +0.000 HD
ATOM      9  H   UNL     1      -1.271   5.787 -12.982  0.00  0.00    +0.000 HD
ENDROOT
BRANCH   1  10
ATOM     10  C   UNL     1      -3.015   8.054  -9.322  0.00  0.00    +0.000 C 
ATOM     11  H   UNL     1      -2.236   8.403  -8.632  0.00  0.00    +0.000 HD
ATOM     12  H   UNL     1      -3.807   8.811  -9.261  0.00  0.00    +0.000 HD
BRANCH  10  13
ATOM     13  C   UNL     1      -3.516   6.718  -8.836  0.00  0.00    +0.000 C 
ATOM     14  C   UNL     1      -4.802   6.351  -8.839  0.00  0.00    +0.000 C 
ATOM     15  H   UNL     1      -2.779   6.020  -8.445  0.00  0.00    +0.000 HD
ATOM     16  H   UNL     1      -5.097   5.376  -8.467  0.00  0.00    +0.000 HD
ATOM     17  H   UNL     1      -5.579   7.010  -9.210  0.00  0.00    +0.000 HD
ENDBRANCH  10  13
ENDBRANCH   1  10
BRANCH   5  18
ATOM     18  O   UNL     1      -0.968   7.860 -14.577  0.00  0.00    +0.000 OA
ATOM     19  H   UNL     1      -1.307   7.060 -15.015  0.00  0.00    +0.000 HD
ENDBRANCH   5  18
BRANCH   3  20
ATOM     20  O   UNL     1      -1.756  10.287 -13.475  0.00  0.00    +0.000 OA
BRANCH  20  21
ATOM     21  C   UNL     1      -0.549  11.032 -13.336  0.00  0.00    +0.000 C 
ATOM     22  H   UNL     1      -0.059  11.154 -14.307  0.00  0.00    +0.000 HD
ATOM     23  H   UNL     1       0.130  10.539 -12.632  0.00  0.00    +0.000 HD
ATOM     24  H   UNL     1      -0.800  12.021 -12.942  0.00  0.00    +0.000 HD
ENDBRANCH  20  21
ENDBRANCH   3  20
TORSDOF 5
ENDMDL
MODEL 9
REMARK VINA RESULT:    -4.746     13.144     14.207
REMARK INTER + INTRA:          -6.046
REMARK INTER:                  -5.801
REMARK INTRA:                  -0.245
REMARK UNBOUND:                -0.190
REMARK  Name = 3314
REMARK  5 active torsions:
REMARK  status: ('A' for Active; 'I' for Inactive)
REMARK    1  A    between atoms: O_1  and  C_6
REMARK    2  A    between atoms: O_1  and  C_11
REMARK    3  A    between atoms: O_2  and  C_8
REMARK    4  A    between atoms: C_3  and  C_4
REMARK    5  A    between atoms: C_4  and  C_10
REMARK                            x       y       z     vdW  Elec       q    Type
REMARK                         _______ _______ _______ _____ _____    ______ ____
ROOT
ATOM      1  C   UNL     1      -8.370  11.008   6.679  0.00  0.00    +0.000 A 
ATOM      2  C   UNL     1      -7.949  12.060   7.494  0.00  0.00    +0.000 A 
ATOM      3  C   UNL     1      -7.150  13.074   6.967  0.00  0.00    +0.000 A 
ATOM      4  C   UNL     1      -7.992  10.972   5.337  0.00  0.00    +0.000 A 
ATOM      5  C   UNL     1      -6.774  13.038   5.625  0.00  0.00    +0.000 A 
ATOM      6  C   UNL     1      -7.194  11.987   4.809  0.00  0.00    +0.000 A 
ATOM      7  H   UNL     1      -8.240  12.094   8.542  0.00  0.00    +0.000 HD
ATOM      8  H   UNL     1      -8.315  10.159   4.692  0.00  0.00    +0.000 HD
ATOM      9  H   UNL     1      -6.908  11.946   3.762  0.00  0.00    +0.000 HD
ENDROOT
BRANCH   1  10
ATOM     10  C   UNL     1      -9.224   9.924   7.245  0.00  0.00    +0.000 C 
ATOM     11  H   UNL     1     -10.272  10.250   7.266  0.00  0.00    +0.000 HD
ATOM     12  H   UNL     1      -9.210   9.056   6.573  0.00  0.00    +0.000 HD
BRANCH  10  13
ATOM     13  C   UNL     1      -8.823   9.525   8.641  0.00  0.00    +0.000 C 
ATOM     14  C   UNL     1      -7.918   8.580   8.922  0.00  0.00    +0.000 C 
ATOM     15  H   UNL     1      -9.317  10.032   9.468  0.00  0.00    +0.000 HD
ATOM     16  H   UNL     1      -7.681   8.335   9.952  0.00  0.00    +0.000 HD
ATOM     17  H   UNL     1      -7.402   8.039   8.138  0.00  0.00    +0.000 HD
ENDBRANCH  10  13
ENDBRANCH   1  10
BRANCH   5  18
ATOM     18  O   UNL     1      -5.993  14.022   5.098  0.00  0.00    +0.000 OA
ATOM     19  H   UNL     1      -5.171  14.087   5.615  0.00  0.00    +0.000 HD
ENDBRANCH   5  18
BRANCH   3  20
ATOM     20  O   UNL     1      -6.745  14.096   7.772  0.00  0.00    +0.000 OA
BRANCH  20  21
ATOM     21  C   UNL     1      -5.826  13.774   8.814  0.00  0.00    +0.000 C 
ATOM     22  H   UNL     1      -6.307  13.871   9.793  0.00  0.00    +0.000 HD
ATOM     23  H   UNL     1      -4.944  14.420   8.763  0.00  0.00    +0.000 HD
ATOM     24  H   UNL     1      -5.507  12.737   8.681  0.00  0.00    +0.000 HD
ENDBRANCH  20  21
ENDBRANCH   3  20
TORSDOF 5
ENDMDL
MODEL 10
REMARK VINA RESULT:    -4.709     17.928     18.498
REMARK INTER + INTRA:          -6.000
REMARK INTER:                  -5.810
REMARK INTRA:                  -0.190
REMARK UNBOUND:                -0.190
REMARK  Name = 3314
REMARK  5 active torsions:
REMARK  status: ('A' for Active; 'I' for Inactive)
REMARK    1  A    between atoms: O_1  and  C_6
REMARK    2  A    between atoms: O_1  and  C_11
REMARK    3  A    between atoms: O_2  and  C_8
REMARK    4  A    between atoms: C_3  and  C_4
REMARK    5  A    between atoms: C_4  and  C_10
REMARK                            x       y       z     vdW  Elec       q    Type
REMARK                         _______ _______ _______ _____ _____    ______ ____
ROOT
ATOM      1  C   UNL     1      -0.436  -0.501 -12.280  0.00  0.00    +0.000 A 
ATOM      2  C   UNL     1       0.052  -1.679 -12.846  0.00  0.00    +0.000 A 
ATOM      3  C   UNL     1       1.390  -1.767 -13.229  0.00  0.00    +0.000 A 
ATOM      4  C   UNL     1       0.414   0.590 -12.098  0.00  0.00    +0.000 A 
ATOM      5  C   UNL     1       2.240  -0.676 -13.046  0.00  0.00    +0.000 A 
ATOM      6  C   UNL     1       1.753   0.502 -12.481  0.00  0.00    +0.000 A 
ATOM      7  H   UNL     1      -0.606  -2.533 -12.990  0.00  0.00    +0.000 HD
ATOM      8  H   UNL     1       0.047   1.513 -11.657  0.00  0.00    +0.000 HD
ATOM      9  H   UNL     1       2.404   1.359 -12.332  0.00  0.00    +0.000 HD
ENDROOT
BRANCH   1  10
ATOM     10  C   UNL     1      -1.867  -0.408 -11.870  0.00  0.00    +0.000 C 
ATOM     11  H   UNL     1      -2.312   0.508 -12.280  0.00  0.00    +0.000 HD
ATOM     12  H   UNL     1      -2.435  -1.229 -12.327  0.00  0.00    +0.000 HD
BRANCH  10  13
ATOM     13  C   UNL     1      -2.053  -0.399 -10.374  0.00  0.00    +0.000 C 
ATOM     14  C   UNL     1      -3.221  -0.619  -9.761  0.00  0.00    +0.000 C 
ATOM     15  H   UNL     1      -1.179  -0.182  -9.764  0.00  0.00    +0.000 HD
ATOM     16  H   UNL     1      -3.288  -0.589  -8.679  0.00  0.00    +0.000 HD
ATOM     17  H   UNL     1      -4.124  -0.832 -10.321  0.00  0.00    +0.000 HD
ENDBRANCH  10  13
ENDBRANCH   1  10
BRANCH   5  18
ATOM     18  O   UNL     1       3.549  -0.749 -13.418  0.00  0.00    +0.000 OA
ATOM     19  H   UNL     1       3.704  -1.598 -13.867  0.00  0.00    +0.000 HD
ENDBRANCH   5  18
BRANCH   3  20
ATOM     20  O   UNL     1       1.855  -2.922 -13.780  0.00  0.00    +0.000 OA
BRANCH  20  21
ATOM     21  C   UNL     1       0.912  -3.973 -13.976  0.00  0.00    +0.000 C 
ATOM     22  H   UNL     1       0.153  -3.960 -13.187  0.00  0.00    +0.000 HD
ATOM     23  H   UNL     1       1.415  -4.945 -13.996  0.00  0.00    +0.000 HD
ATOM     24  H   UNL     1       0.418  -3.816 -14.940  0.00  0.00    +0.000 HD
ENDBRANCH  20  21
ENDBRANCH   3  20
TORSDOF 5
ENDMDL
