MODEL 1
REMARK VINA RESULT:    -5.429      0.000      0.000
REMARK INTER + INTRA:          -7.419
REMARK INTER:                  -7.006
REMARK INTRA:                  -0.413
REMARK UNBOUND:                -0.245
REMARK  Name = 12813
REMARK  6 active torsions:
REMARK  status: ('A' for Active; 'I' for Inactive)
REMARK    1  A    between atoms: C_3  and  C_4
REMARK    2  A    between atoms: C_4  and  C_6
REMARK    3  A    between atoms: C_6  and  C_7
REMARK    4  A    between atoms: C_7  and  C_9
REMARK    5  A    between atoms: C_9  and  C_11
REMARK    6  A    between atoms: C_11  and  C_12
REMARK                            x       y       z     vdW  Elec       q    Type
REMARK                         _______ _______ _______ _____ _____    ______ ____
ROOT
ATOM      1  C   UNL     1       5.638   8.210   2.655  0.00  0.00    +0.000 C 
ATOM      2  H   UNL     1       6.109   9.014   3.235  0.00  0.00    +0.000 HD
ATOM      3  H   UNL     1       4.573   8.454   2.570  0.00  0.00    +0.000 HD
ENDROOT
BRANCH   1   4
ATOM      4  C   UNL     1       6.273   8.140   1.267  0.00  0.00    +0.000 C 
ATOM      5  H   UNL     1       7.344   8.369   1.335  0.00  0.00    +0.000 HD
ATOM      6  H   UNL     1       6.179   7.111   0.896  0.00  0.00    +0.000 HD
BRANCH   4   9
ATOM      7  O   UNL     1       5.888  10.450   0.676  0.00  0.00    +0.000 OA
ATOM      8  O   UNL     1       4.776  12.450   0.519  0.00  0.00    +0.000 OA
ATOM      9  C   UNL     1       5.602   9.096   0.300  0.00  0.00    +0.000 C 
ATOM     10  C   UNL     1       4.093   9.010   0.325  0.00  0.00    +0.000 C 
ATOM     11  C   UNL     1       3.687  10.389  -0.138  0.00  0.00    +0.000 C 
ATOM     12  C   UNL     1       4.805  11.237   0.390  0.00  0.00    +0.000 C 
ATOM     13  H   UNL     1       5.985   8.943  -0.718  0.00  0.00    +0.000 HD
ATOM     14  H   UNL     1       3.725   8.848   1.345  0.00  0.00    +0.000 HD
ATOM     15  H   UNL     1       3.698   8.209  -0.307  0.00  0.00    +0.000 HD
ATOM     16  H   UNL     1       2.728  10.690   0.289  0.00  0.00    +0.000 HD
ATOM     17  H   UNL     1       3.666  10.463  -1.229  0.00  0.00    +0.000 HD
ENDBRANCH   4   9
ENDBRANCH   1   4
BRANCH   1  18
ATOM     18  C   UNL     1       5.789   6.883   3.404  0.00  0.00    +0.000 C 
ATOM     19  H   UNL     1       6.369   6.179   2.796  0.00  0.00    +0.000 HD
ATOM     20  H   UNL     1       4.801   6.436   3.565  0.00  0.00    +0.000 HD
BRANCH  18  21
ATOM     21  C   UNL     1       6.480   7.085   4.755  0.00  0.00    +0.000 C 
ATOM     22  H   UNL     1       7.497   6.675   4.706  0.00  0.00    +0.000 HD
ATOM     23  H   UNL     1       5.946   6.512   5.523  0.00  0.00    +0.000 HD
BRANCH  21  24
ATOM     24  C   UNL     1       6.555   8.551   5.186  0.00  0.00    +0.000 C 
ATOM     25  H   UNL     1       6.204   9.188   4.366  0.00  0.00    +0.000 HD
ATOM     26  H   UNL     1       5.875   8.715   6.030  0.00  0.00    +0.000 HD
BRANCH  24  27
ATOM     27  C   UNL     1       7.953   8.994   5.589  0.00  0.00    +0.000 C 
ATOM     28  H   UNL     1       8.193   8.629   6.592  0.00  0.00    +0.000 HD
ATOM     29  H   UNL     1       8.029  10.085   5.595  0.00  0.00    +0.000 HD
ATOM     30  H   UNL     1       8.702   8.601   4.894  0.00  0.00    +0.000 HD
ENDBRANCH  24  27
ENDBRANCH  21  24
ENDBRANCH  18  21
ENDBRANCH   1  18
TORSDOF 6
ENDMDL
MODEL 2
REMARK VINA RESULT:    -5.213      2.257      4.193
REMARK INTER + INTRA:          -7.133
REMARK INTER:                  -6.268
REMARK INTRA:                  -0.865
REMARK UNBOUND:                -0.245
REMARK  Name = 12813
REMARK  6 active torsions:
REMARK  status: ('A' for Active; 'I' for Inactive)
REMARK    1  A    between atoms: C_3  and  C_4
REMARK    2  A    between atoms: C_4  and  C_6
REMARK    3  A    between atoms: C_6  and  C_7
REMARK    4  A    between atoms: C_7  and  C_9
REMARK    5  A    between atoms: C_9  and  C_11
REMARK    6  A    between atoms: C_11  and  C_12
REMARK                            x       y       z     vdW  Elec       q    Type
REMARK                         _______ _______ _______ _____ _____    ______ ____
ROOT
ATOM      1  C   UNL     1       4.844   8.353   1.503  0.00  0.00    +0.000 C 
ATOM      2  H   UNL     1       4.798   8.462   0.413  0.00  0.00    +0.000 HD
ATOM      3  H   UNL     1       4.398   7.382   1.751  0.00  0.00    +0.000 HD
ENDROOT
BRANCH   1   4
ATOM      4  C   UNL     1       6.302   8.391   1.962  0.00  0.00    +0.000 C 
ATOM      5  H   UNL     1       6.412   9.098   2.793  0.00  0.00    +0.000 HD
ATOM      6  H   UNL     1       6.572   7.396   2.338  0.00  0.00    +0.000 HD
BRANCH   4   9
ATOM      7  O   UNL     1       7.044  10.162   0.497  0.00  0.00    +0.000 OA
ATOM      8  O   UNL     1       7.207  11.411  -1.420  0.00  0.00    +0.000 OA
ATOM      9  C   UNL     1       7.231   8.780   0.828  0.00  0.00    +0.000 C 
ATOM     10  C   UNL     1       6.943   8.043  -0.460  0.00  0.00    +0.000 C 
ATOM     11  C   UNL     1       7.465   9.005  -1.501  0.00  0.00    +0.000 C 
ATOM     12  C   UNL     1       7.219  10.333  -0.850  0.00  0.00    +0.000 C 
ATOM     13  H   UNL     1       8.278   8.646   1.129  0.00  0.00    +0.000 HD
ATOM     14  H   UNL     1       5.865   7.906  -0.602  0.00  0.00    +0.000 HD
ATOM     15  H   UNL     1       7.417   7.058  -0.506  0.00  0.00    +0.000 HD
ATOM     16  H   UNL     1       6.913   8.917  -2.440  0.00  0.00    +0.000 HD
ATOM     17  H   UNL     1       8.538   8.881  -1.669  0.00  0.00    +0.000 HD
ENDBRANCH   4   9
ENDBRANCH   1   4
BRANCH   1  18
ATOM     18  C   UNL     1       4.024   9.464   2.164  0.00  0.00    +0.000 C 
ATOM     19  H   UNL     1       4.616   9.942   2.954  0.00  0.00    +0.000 HD
ATOM     20  H   UNL     1       3.135   9.033   2.642  0.00  0.00    +0.000 HD
BRANCH  18  21
ATOM     21  C   UNL     1       3.589  10.515   1.141  0.00  0.00    +0.000 C 
ATOM     22  H   UNL     1       4.249  11.389   1.215  0.00  0.00    +0.000 HD
ATOM     23  H   UNL     1       2.578  10.862   1.387  0.00  0.00    +0.000 HD
BRANCH  21  24
ATOM     24  C   UNL     1       3.605  10.002  -0.301  0.00  0.00    +0.000 C 
ATOM     25  H   UNL     1       4.515   9.413  -0.466  0.00  0.00    +0.000 HD
ATOM     26  H   UNL     1       2.756   9.325  -0.453  0.00  0.00    +0.000 HD
BRANCH  24  27
ATOM     27  C   UNL     1       3.541  11.110  -1.340  0.00  0.00    +0.000 C 
ATOM     28  H   UNL     1       3.978  12.031  -0.941  0.00  0.00    +0.000 HD
ATOM     29  H   UNL     1       2.506  11.319  -1.625  0.00  0.00    +0.000 HD
ATOM     30  H   UNL     1       4.097  10.832  -2.242  0.00  0.00    +0.000 HD
ENDBRANCH  24  27
ENDBRANCH  21  24
ENDBRANCH  18  21
ENDBRANCH   1  18
TORSDOF 6
ENDMDL
MODEL 3
REMARK VINA RESULT:    -5.059      2.243      4.159
REMARK INTER + INTRA:          -6.930
REMARK INTER:                  -6.660
REMARK INTRA:                  -0.271
REMARK UNBOUND:                -0.245
REMARK  Name = 12813
REMARK  6 active torsions:
REMARK  status: ('A' for Active; 'I' for Inactive)
REMARK    1  A    between atoms: C_3  and  C_4
REMARK    2  A    between atoms: C_4  and  C_6
REMARK    3  A    between atoms: C_6  and  C_7
REMARK    4  A    between atoms: C_7  and  C_9
REMARK    5  A    between atoms: C_9  and  C_11
REMARK    6  A    between atoms: C_11  and  C_12
REMARK                            x       y       z     vdW  Elec       q    Type
REMARK                         _______ _______ _______ _____ _____    ______ ____
ROOT
ATOM      1  C   UNL     1       7.561   8.616   0.851  0.00  0.00    +0.000 C 
ATOM      2  H   UNL     1       8.166   7.708   0.744  0.00  0.00    +0.000 HD
ATOM      3  H   UNL     1       6.918   8.683  -0.035  0.00  0.00    +0.000 HD
ENDROOT
BRANCH   1   4
ATOM      4  C   UNL     1       6.705   8.517   2.114  0.00  0.00    +0.000 C 
ATOM      5  H   UNL     1       6.944   7.592   2.653  0.00  0.00    +0.000 HD
ATOM      6  H   UNL     1       6.960   9.358   2.771  0.00  0.00    +0.000 HD
BRANCH   4   9
ATOM      7  O   UNL     1       4.900   9.792   1.140  0.00  0.00    +0.000 OA
ATOM      8  O   UNL     1       3.052  11.149   1.064  0.00  0.00    +0.000 OA
ATOM      9  C   UNL     1       5.225   8.554   1.786  0.00  0.00    +0.000 C 
ATOM     10  C   UNL     1       4.341   8.526   3.012  0.00  0.00    +0.000 C 
ATOM     11  C   UNL     1       3.090   9.214   2.519  0.00  0.00    +0.000 C 
ATOM     12  C   UNL     1       3.640  10.180   1.513  0.00  0.00    +0.000 C 
ATOM     13  H   UNL     1       4.965   7.739   1.098  0.00  0.00    +0.000 HD
ATOM     14  H   UNL     1       4.780   9.115   3.827  0.00  0.00    +0.000 HD
ATOM     15  H   UNL     1       4.158   7.515   3.387  0.00  0.00    +0.000 HD
ATOM     16  H   UNL     1       2.574   9.737   3.328  0.00  0.00    +0.000 HD
ATOM     17  H   UNL     1       2.414   8.517   2.014  0.00  0.00    +0.000 HD
ENDBRANCH   4   9
ENDBRANCH   1   4
BRANCH   1  18
ATOM     18  C   UNL     1       8.478   9.841   0.895  0.00  0.00    +0.000 C 
ATOM     19  H   UNL     1       9.304   9.660   1.594  0.00  0.00    +0.000 HD
ATOM     20  H   UNL     1       7.920  10.708   1.272  0.00  0.00    +0.000 HD
BRANCH  18  21
ATOM     21  C   UNL     1       9.041  10.163  -0.491  0.00  0.00    +0.000 C 
ATOM     22  H   UNL     1       9.783   9.404  -0.766  0.00  0.00    +0.000 HD
ATOM     23  H   UNL     1       9.571  11.123  -0.452  0.00  0.00    +0.000 HD
BRANCH  21  24
ATOM     24  C   UNL     1       7.968  10.228  -1.581  0.00  0.00    +0.000 C 
ATOM     25  H   UNL     1       8.441  10.463  -2.541  0.00  0.00    +0.000 HD
ATOM     26  H   UNL     1       7.502   9.241  -1.688  0.00  0.00    +0.000 HD
BRANCH  24  27
ATOM     27  C   UNL     1       6.882  11.255  -1.303  0.00  0.00    +0.000 C 
ATOM     28  H   UNL     1       7.242  12.261  -1.539  0.00  0.00    +0.000 HD
ATOM     29  H   UNL     1       6.587  11.236  -0.250  0.00  0.00    +0.000 HD
ATOM     30  H   UNL     1       5.994  11.059  -1.912  0.00  0.00    +0.000 HD
ENDBRANCH  24  27
ENDBRANCH  21  24
ENDBRANCH  18  21
ENDBRANCH   1  18
TORSDOF 6
ENDMDL
MODEL 4
REMARK VINA RESULT:    -5.033      1.512      2.683
REMARK INTER + INTRA:          -6.896
REMARK INTER:                  -6.588
REMARK INTRA:                  -0.307
REMARK UNBOUND:                -0.245
REMARK  Name = 12813
REMARK  6 active torsions:
REMARK  status: ('A' for Active; 'I' for Inactive)
REMARK    1  A    between atoms: C_3  and  C_4
REMARK    2  A    between atoms: C_4  and  C_6
REMARK    3  A    between atoms: C_6  and  C_7
REMARK    4  A    between atoms: C_7  and  C_9
REMARK    5  A    between atoms: C_9  and  C_11
REMARK    6  A    between atoms: C_11  and  C_12
REMARK                            x       y       z     vdW  Elec       q    Type
REMARK                         _______ _______ _______ _____ _____    ______ ____
ROOT
ATOM      1  C   UNL     1       6.429   7.105   4.759  0.00  0.00    +0.000 C 
ATOM      2  H   UNL     1       5.923   6.546   5.556  0.00  0.00    +0.000 HD
ATOM      3  H   UNL     1       7.450   6.712   4.686  0.00  0.00    +0.000 HD
ENDROOT
BRANCH   1   4
ATOM      4  C   UNL     1       5.691   6.895   3.438  0.00  0.00    +0.000 C 
ATOM      5  H   UNL     1       6.113   6.031   2.909  0.00  0.00    +0.000 HD
ATOM      6  H   UNL     1       4.641   6.664   3.661  0.00  0.00    +0.000 HD
BRANCH   4   9
ATOM      7  O   UNL     1       4.470   8.428   2.026  0.00  0.00    +0.000 OA
ATOM      8  O   UNL     1       3.686   9.372   0.088  0.00  0.00    +0.000 OA
ATOM      9  C   UNL     1       5.767   8.126   2.557  0.00  0.00    +0.000 C 
ATOM     10  C   UNL     1       6.638   7.935   1.335  0.00  0.00    +0.000 C 
ATOM     11  C   UNL     1       6.051   8.932   0.365  0.00  0.00    +0.000 C 
ATOM     12  C   UNL     1       4.605   8.942   0.764  0.00  0.00    +0.000 C 
ATOM     13  H   UNL     1       6.100   8.995   3.141  0.00  0.00    +0.000 HD
ATOM     14  H   UNL     1       6.524   6.923   0.927  0.00  0.00    +0.000 HD
ATOM     15  H   UNL     1       7.700   8.101   1.535  0.00  0.00    +0.000 HD
ATOM     16  H   UNL     1       6.173   8.605  -0.670  0.00  0.00    +0.000 HD
ATOM     17  H   UNL     1       6.469   9.933   0.508  0.00  0.00    +0.000 HD
ENDBRANCH   4   9
ENDBRANCH   1   4
BRANCH   1  18
ATOM     18  C   UNL     1       6.490   8.588   5.133  0.00  0.00    +0.000 C 
ATOM     19  H   UNL     1       5.637   8.844   5.774  0.00  0.00    +0.000 HD
ATOM     20  H   UNL     1       6.411   9.201   4.227  0.00  0.00    +0.000 HD
BRANCH  18  21
ATOM     21  C   UNL     1       7.795   8.923   5.860  0.00  0.00    +0.000 C 
ATOM     22  H   UNL     1       8.556   9.211   5.124  0.00  0.00    +0.000 HD
ATOM     23  H   UNL     1       8.169   8.023   6.364  0.00  0.00    +0.000 HD
BRANCH  21  24
ATOM     24  C   UNL     1       7.646  10.048   6.887  0.00  0.00    +0.000 C 
ATOM     25  H   UNL     1       8.013  10.986   6.453  0.00  0.00    +0.000 HD
ATOM     26  H   UNL     1       6.582  10.195   7.110  0.00  0.00    +0.000 HD
BRANCH  24  27
ATOM     27  C   UNL     1       8.388   9.784   8.187  0.00  0.00    +0.000 C 
ATOM     28  H   UNL     1       7.716   9.333   8.923  0.00  0.00    +0.000 HD
ATOM     29  H   UNL     1       8.781  10.714   8.608  0.00  0.00    +0.000 HD
ATOM     30  H   UNL     1       9.227   9.099   8.026  0.00  0.00    +0.000 HD
ENDBRANCH  24  27
ENDBRANCH  21  24
ENDBRANCH  18  21
ENDBRANCH   1  18
TORSDOF 6
ENDMDL
MODEL 5
REMARK VINA RESULT:    -5.029     14.713     16.037
REMARK INTER + INTRA:          -6.891
REMARK INTER:                  -6.349
REMARK INTRA:                  -0.542
REMARK UNBOUND:                -0.245
REMARK  Name = 12813
REMARK  6 active torsions:
REMARK  status: ('A' for Active; 'I' for Inactive)
REMARK    1  A    between atoms: C_3  and  C_4
REMARK    2  A    between atoms: C_4  and  C_6
REMARK    3  A    between atoms: C_6  and  C_7
REMARK    4  A    between atoms: C_7  and  C_9
REMARK    5  A    between atoms: C_9  and  C_11
REMARK    6  A    between atoms: C_11  and  C_12
REMARK                            x       y       z     vdW  Elec       q    Type
REMARK                         _______ _______ _______ _____ _____    ______ ____
ROOT
ATOM      1  C   UNL     1      -2.224   9.513  -9.626  0.00  0.00    +0.000 C 
ATOM      2  H   UNL     1      -1.204   9.201  -9.880  0.00  0.00    +0.000 HD
ATOM      3  H   UNL     1      -2.141  10.378  -8.957  0.00  0.00    +0.000 HD
ENDROOT
BRANCH   1   4
ATOM      4  C   UNL     1      -2.973   9.906 -10.899  0.00  0.00    +0.000 C 
ATOM      5  H   UNL     1      -3.846   9.256 -11.033  0.00  0.00    +0.000 HD
ATOM      6  H   UNL     1      -3.343  10.933 -10.780  0.00  0.00    +0.000 HD
BRANCH   4   9
ATOM      7  O   UNL     1      -2.538   8.785 -12.994  0.00  0.00    +0.000 OA
ATOM      8  O   UNL     1      -1.541   7.335 -14.465  0.00  0.00    +0.000 OA
ATOM      9  C   UNL     1      -2.077   9.823 -12.119  0.00  0.00    +0.000 C 
ATOM     10  C   UNL     1      -0.654   9.432 -11.790  0.00  0.00    +0.000 C 
ATOM     11  C   UNL     1      -0.193   8.793 -13.078  0.00  0.00    +0.000 C 
ATOM     12  C   UNL     1      -1.464   8.194 -13.603  0.00  0.00    +0.000 C 
ATOM     13  H   UNL     1      -2.102  10.768 -12.678  0.00  0.00    +0.000 HD
ATOM     14  H   UNL     1      -0.628   8.686 -10.986  0.00  0.00    +0.000 HD
ATOM     15  H   UNL     1      -0.036  10.280 -11.484  0.00  0.00    +0.000 HD
ATOM     16  H   UNL     1       0.561   8.023 -12.897  0.00  0.00    +0.000 HD
ATOM     17  H   UNL     1       0.175   9.535 -13.792  0.00  0.00    +0.000 HD
ENDBRANCH   4   9
ENDBRANCH   1   4
BRANCH   1  18
ATOM     18  C   UNL     1      -2.939   8.378  -8.888  0.00  0.00    +0.000 C 
ATOM     19  H   UNL     1      -3.956   8.690  -8.624  0.00  0.00    +0.000 HD
ATOM     20  H   UNL     1      -2.413   8.158  -7.951  0.00  0.00    +0.000 HD
BRANCH  18  21
ATOM     21  C   UNL     1      -2.998   7.111  -9.745  0.00  0.00    +0.000 C 
ATOM     22  H   UNL     1      -2.445   6.307  -9.243  0.00  0.00    +0.000 HD
ATOM     23  H   UNL     1      -2.488   7.296 -10.699  0.00  0.00    +0.000 HD
BRANCH  21  24
ATOM     24  C   UNL     1      -4.424   6.633 -10.025  0.00  0.00    +0.000 C 
ATOM     25  H   UNL     1      -4.994   7.446 -10.491  0.00  0.00    +0.000 HD
ATOM     26  H   UNL     1      -4.395   5.809 -10.747  0.00  0.00    +0.000 HD
BRANCH  24  27
ATOM     27  C   UNL     1      -5.163   6.167  -8.780  0.00  0.00    +0.000 C 
ATOM     28  H   UNL     1      -4.474   5.662  -8.096  0.00  0.00    +0.000 HD
ATOM     29  H   UNL     1      -5.961   5.466  -9.039  0.00  0.00    +0.000 HD
ATOM     30  H   UNL     1      -5.608   7.015  -8.250  0.00  0.00    +0.000 HD
ENDBRANCH  24  27
ENDBRANCH  21  24
ENDBRANCH  18  21
ENDBRANCH   1  18
TORSDOF 6
ENDMDL
MODEL 6
REMARK VINA RESULT:    -5.026     14.570     16.146
REMARK INTER + INTRA:          -6.886
REMARK INTER:                  -6.343
REMARK INTRA:                  -0.544
REMARK UNBOUND:                -0.245
REMARK  Name = 12813
REMARK  6 active torsions:
REMARK  status: ('A' for Active; 'I' for Inactive)
REMARK    1  A    between atoms: C_3  and  C_4
REMARK    2  A    between atoms: C_4  and  C_6
REMARK    3  A    between atoms: C_6  and  C_7
REMARK    4  A    between atoms: C_7  and  C_9
REMARK    5  A    between atoms: C_9  and  C_11
REMARK    6  A    between atoms: C_11  and  C_12
REMARK                            x       y       z     vdW  Elec       q    Type
REMARK                         _______ _______ _______ _____ _____    ______ ____
ROOT
ATOM      1  C   UNL     1      -3.047   6.742 -11.901  0.00  0.00    +0.000 C 
ATOM      2  H   UNL     1      -3.552   6.962 -12.850  0.00  0.00    +0.000 HD
ATOM      3  H   UNL     1      -3.059   5.653 -11.773  0.00  0.00    +0.000 HD
ENDROOT
BRANCH   1   4
ATOM      4  C   UNL     1      -1.606   7.248 -11.958  0.00  0.00    +0.000 C 
ATOM      5  H   UNL     1      -1.283   7.563 -10.958  0.00  0.00    +0.000 HD
ATOM      6  H   UNL     1      -0.960   6.417 -12.267  0.00  0.00    +0.000 HD
BRANCH   4   9
ATOM      7  O   UNL     1      -0.609   8.013 -14.020  0.00  0.00    +0.000 OA
ATOM      8  O   UNL     1       0.871   9.102 -15.394  0.00  0.00    +0.000 OA
ATOM      9  C   UNL     1      -1.460   8.400 -12.933  0.00  0.00    +0.000 C 
ATOM     10  C   UNL     1      -0.776   9.608 -12.334  0.00  0.00    +0.000 C 
ATOM     11  C   UNL     1      -0.175  10.271 -13.550  0.00  0.00    +0.000 C 
ATOM     12  C   UNL     1       0.121   9.096 -14.432  0.00  0.00    +0.000 C 
ATOM     13  H   UNL     1      -2.437   8.673 -13.353  0.00  0.00    +0.000 HD
ATOM     14  H   UNL     1       0.027   9.306 -11.652  0.00  0.00    +0.000 HD
ATOM     15  H   UNL     1      -1.461  10.258 -11.781  0.00  0.00    +0.000 HD
ATOM     16  H   UNL     1       0.737  10.817 -13.300  0.00  0.00    +0.000 HD
ATOM     17  H   UNL     1      -0.893  10.926 -14.053  0.00  0.00    +0.000 HD
ENDBRANCH   4   9
ENDBRANCH   1   4
BRANCH   1  18
ATOM     18  C   UNL     1      -3.820   7.390 -10.749  0.00  0.00    +0.000 C 
ATOM     19  H   UNL     1      -4.841   6.992 -10.718  0.00  0.00    +0.000 HD
ATOM     20  H   UNL     1      -3.898   8.471 -10.918  0.00  0.00    +0.000 HD
BRANCH  18  21
ATOM     21  C   UNL     1      -3.130   7.135  -9.407  0.00  0.00    +0.000 C 
ATOM     22  H   UNL     1      -2.129   6.724  -9.586  0.00  0.00    +0.000 HD
ATOM     23  H   UNL     1      -3.690   6.372  -8.852  0.00  0.00    +0.000 HD
BRANCH  21  24
ATOM     24  C   UNL     1      -3.003   8.391  -8.542  0.00  0.00    +0.000 C 
ATOM     25  H   UNL     1      -3.880   8.472  -7.889  0.00  0.00    +0.000 HD
ATOM     26  H   UNL     1      -2.127   8.293  -7.889  0.00  0.00    +0.000 HD
BRANCH  24  27
ATOM     27  C   UNL     1      -2.871   9.673  -9.349  0.00  0.00    +0.000 C 
ATOM     28  H   UNL     1      -2.001   9.618 -10.011  0.00  0.00    +0.000 HD
ATOM     29  H   UNL     1      -2.745  10.537  -8.691  0.00  0.00    +0.000 HD
ATOM     30  H   UNL     1      -3.759   9.839  -9.967  0.00  0.00    +0.000 HD
ENDBRANCH  24  27
ENDBRANCH  21  24
ENDBRANCH  18  21
ENDBRANCH   1  18
TORSDOF 6
ENDMDL
MODEL 7
REMARK VINA RESULT:    -4.850     14.334     15.570
REMARK INTER + INTRA:          -6.654
REMARK INTER:                  -6.140
REMARK INTRA:                  -0.514
REMARK UNBOUND:                -0.245
REMARK  Name = 12813
REMARK  6 active torsions:
REMARK  status: ('A' for Active; 'I' for Inactive)
REMARK    1  A    between atoms: C_3  and  C_4
REMARK    2  A    between atoms: C_4  and  C_6
REMARK    3  A    between atoms: C_6  and  C_7
REMARK    4  A    between atoms: C_7  and  C_9
REMARK    5  A    between atoms: C_9  and  C_11
REMARK    6  A    between atoms: C_11  and  C_12
REMARK                            x       y       z     vdW  Elec       q    Type
REMARK                         _______ _______ _______ _____ _____    ______ ____
ROOT
ATOM      1  C   UNL     1      -9.195  11.552   5.753  0.00  0.00    +0.000 C 
ATOM      2  H   UNL     1     -10.005  11.685   5.026  0.00  0.00    +0.000 HD
ATOM      3  H   UNL     1      -8.967  12.540   6.168  0.00  0.00    +0.000 HD
ENDROOT
BRANCH   1   4
ATOM      4  C   UNL     1      -9.653  10.609   6.865  0.00  0.00    +0.000 C 
ATOM      5  H   UNL     1     -10.378  11.120   7.511  0.00  0.00    +0.000 HD
ATOM      6  H   UNL     1     -10.166   9.755   6.405  0.00  0.00    +0.000 HD
BRANCH   4   9
ATOM      7  O   UNL     1      -8.887   8.998   8.494  0.00  0.00    +0.000 OA
ATOM      8  O   UNL     1      -8.289   8.165  10.546  0.00  0.00    +0.000 OA
ATOM      9  C   UNL     1      -8.482  10.116   7.693  0.00  0.00    +0.000 C 
ATOM     10  C   UNL     1      -7.988  11.135   8.695  0.00  0.00    +0.000 C 
ATOM     11  C   UNL     1      -7.367  10.261   9.759  0.00  0.00    +0.000 C 
ATOM     12  C   UNL     1      -8.219   9.030   9.688  0.00  0.00    +0.000 C 
ATOM     13  H   UNL     1      -7.665   9.783   7.041  0.00  0.00    +0.000 HD
ATOM     14  H   UNL     1      -8.824  11.696   9.130  0.00  0.00    +0.000 HD
ATOM     15  H   UNL     1      -7.287  11.855   8.264  0.00  0.00    +0.000 HD
ATOM     16  H   UNL     1      -7.427  10.727  10.746  0.00  0.00    +0.000 HD
ATOM     17  H   UNL     1      -6.334   9.997   9.517  0.00  0.00    +0.000 HD
ENDBRANCH   4   9
ENDBRANCH   1   4
BRANCH   1  18
ATOM     18  C   UNL     1      -7.953  11.010   5.040  0.00  0.00    +0.000 C 
ATOM     19  H   UNL     1      -8.250  10.497   4.117  0.00  0.00    +0.000 HD
ATOM     20  H   UNL     1      -7.455  10.268   5.678  0.00  0.00    +0.000 HD
BRANCH  18  21
ATOM     21  C   UNL     1      -6.969  12.135   4.709  0.00  0.00    +0.000 C 
ATOM     22  H   UNL     1      -7.270  12.615   3.769  0.00  0.00    +0.000 HD
ATOM     23  H   UNL     1      -5.974  11.706   4.539  0.00  0.00    +0.000 HD
BRANCH  21  24
ATOM     24  C   UNL     1      -6.875  13.200   5.803  0.00  0.00    +0.000 C 
ATOM     25  H   UNL     1      -7.875  13.394   6.208  0.00  0.00    +0.000 HD
ATOM     26  H   UNL     1      -6.265  12.817   6.630  0.00  0.00    +0.000 HD
BRANCH  24  27
ATOM     27  C   UNL     1      -6.277  14.513   5.321  0.00  0.00    +0.000 C 
ATOM     28  H   UNL     1      -5.999  14.439   4.266  0.00  0.00    +0.000 HD
ATOM     29  H   UNL     1      -5.381  14.767   5.894  0.00  0.00    +0.000 HD
ATOM     30  H   UNL     1      -6.997  15.332   5.428  0.00  0.00    +0.000 HD
ENDBRANCH  24  27
ENDBRANCH  21  24
ENDBRANCH  18  21
ENDBRANCH   1  18
TORSDOF 6
ENDMDL
MODEL 8
REMARK VINA RESULT:    -4.821     28.739     29.569
REMARK INTER + INTRA:          -6.616
REMARK INTER:                  -6.352
REMARK INTRA:                  -0.263
REMARK UNBOUND:                -0.245
REMARK  Name = 12813
REMARK  6 active torsions:
REMARK  status: ('A' for Active; 'I' for Inactive)
REMARK    1  A    between atoms: C_3  and  C_4
REMARK    2  A    between atoms: C_4  and  C_6
REMARK    3  A    between atoms: C_6  and  C_7
REMARK    4  A    between atoms: C_7  and  C_9
REMARK    5  A    between atoms: C_9  and  C_11
REMARK    6  A    between atoms: C_11  and  C_12
REMARK                            x       y       z     vdW  Elec       q    Type
REMARK                         _______ _______ _______ _____ _____    ______ ____
ROOT
ATOM      1  C   UNL     1     -21.168  -3.111   5.546  0.00  0.00    +0.000 C 
ATOM      2  H   UNL     1     -22.156  -3.477   5.241  0.00  0.00    +0.000 HD
ATOM      3  H   UNL     1     -21.224  -2.884   6.617  0.00  0.00    +0.000 HD
ENDROOT
BRANCH   1   4
ATOM      4  C   UNL     1     -20.120  -4.194   5.294  0.00  0.00    +0.000 C 
ATOM      5  H   UNL     1     -19.166  -3.901   5.749  0.00  0.00    +0.000 HD
ATOM      6  H   UNL     1     -20.451  -5.117   5.787  0.00  0.00    +0.000 HD
BRANCH   4   9
ATOM      7  O   UNL     1     -21.192  -4.723   3.195  0.00  0.00    +0.000 OA
ATOM      8  O   UNL     1     -21.895  -6.004   1.427  0.00  0.00    +0.000 OA
ATOM      9  C   UNL     1     -19.927  -4.447   3.811  0.00  0.00    +0.000 C 
ATOM     10  C   UNL     1     -19.091  -5.672   3.517  0.00  0.00    +0.000 C 
ATOM     11  C   UNL     1     -19.583  -6.072   2.146  0.00  0.00    +0.000 C 
ATOM     12  C   UNL     1     -21.017  -5.634   2.189  0.00  0.00    +0.000 C 
ATOM     13  H   UNL     1     -19.504  -3.559   3.324  0.00  0.00    +0.000 HD
ATOM     14  H   UNL     1     -19.309  -6.476   4.229  0.00  0.00    +0.000 HD
ATOM     15  H   UNL     1     -18.016  -5.475   3.549  0.00  0.00    +0.000 HD
ATOM     16  H   UNL     1     -19.504  -7.150   1.991  0.00  0.00    +0.000 HD
ATOM     17  H   UNL     1     -19.066  -5.526   1.352  0.00  0.00    +0.000 HD
ENDBRANCH   4   9
ENDBRANCH   1   4
BRANCH   1  18
ATOM     18  C   UNL     1     -20.838  -1.828   4.779  0.00  0.00    +0.000 C 
ATOM     19  H   UNL     1     -21.674  -1.565   4.119  0.00  0.00    +0.000 HD
ATOM     20  H   UNL     1     -19.961  -1.993   4.141  0.00  0.00    +0.000 HD
BRANCH  18  21
ATOM     21  C   UNL     1     -20.557  -0.667   5.737  0.00  0.00    +0.000 C 
ATOM     22  H   UNL     1     -21.361   0.075   5.653  0.00  0.00    +0.000 HD
ATOM     23  H   UNL     1     -19.630  -0.164   5.432  0.00  0.00    +0.000 HD
BRANCH  21  24
ATOM     24  C   UNL     1     -20.432  -1.103   7.198  0.00  0.00    +0.000 C 
ATOM     25  H   UNL     1     -20.520  -2.194   7.260  0.00  0.00    +0.000 HD
ATOM     26  H   UNL     1     -19.434  -0.841   7.569  0.00  0.00    +0.000 HD
BRANCH  24  27
ATOM     27  C   UNL     1     -21.474  -0.473   8.110  0.00  0.00    +0.000 C 
ATOM     28  H   UNL     1     -22.334  -0.133   7.525  0.00  0.00    +0.000 HD
ATOM     29  H   UNL     1     -21.059   0.388   8.640  0.00  0.00    +0.000 HD
ATOM     30  H   UNL     1     -21.831  -1.195   8.851  0.00  0.00    +0.000 HD
ENDBRANCH  24  27
ENDBRANCH  21  24
ENDBRANCH  18  21
ENDBRANCH   1  18
TORSDOF 6
ENDMDL
MODEL 9
REMARK VINA RESULT:    -4.801     28.356     29.375
REMARK INTER + INTRA:          -6.589
REMARK INTER:                  -6.235
REMARK INTRA:                  -0.354
REMARK UNBOUND:                -0.245
REMARK  Name = 12813
REMARK  6 active torsions:
REMARK  status: ('A' for Active; 'I' for Inactive)
REMARK    1  A    between atoms: C_3  and  C_4
REMARK    2  A    between atoms: C_4  and  C_6
REMARK    3  A    between atoms: C_6  and  C_7
REMARK    4  A    between atoms: C_7  and  C_9
REMARK    5  A    between atoms: C_9  and  C_11
REMARK    6  A    between atoms: C_11  and  C_12
REMARK                            x       y       z     vdW  Elec       q    Type
REMARK                         _______ _______ _______ _____ _____    ______ ____
ROOT
ATOM      1  C   UNL     1     -20.793  -3.030   4.312  0.00  0.00    +0.000 C 
ATOM      2  H   UNL     1     -21.631  -2.456   3.898  0.00  0.00    +0.000 HD
ATOM      3  H   UNL     1     -19.940  -2.345   4.392  0.00  0.00    +0.000 HD
ENDROOT
BRANCH   1   4
ATOM      4  C   UNL     1     -21.169  -3.565   5.693  0.00  0.00    +0.000 C 
ATOM      5  H   UNL     1     -22.251  -3.738   5.743  0.00  0.00    +0.000 HD
ATOM      6  H   UNL     1     -20.673  -4.533   5.836  0.00  0.00    +0.000 HD
BRANCH   4   9
ATOM      7  O   UNL     1     -21.790  -2.507   7.774  0.00  0.00    +0.000 OA
ATOM      8  O   UNL     1     -22.541  -0.861   9.185  0.00  0.00    +0.000 OA
ATOM      9  C   UNL     1     -20.750  -2.608   6.792  0.00  0.00    +0.000 C 
ATOM     10  C   UNL     1     -20.553  -1.189   6.307  0.00  0.00    +0.000 C 
ATOM     11  C   UNL     1     -20.809  -0.385   7.560  0.00  0.00    +0.000 C 
ATOM     12  C   UNL     1     -21.819  -1.233   8.273  0.00  0.00    +0.000 C 
ATOM     13  H   UNL     1     -19.847  -2.977   7.297  0.00  0.00    +0.000 HD
ATOM     14  H   UNL     1     -21.300  -0.926   5.549  0.00  0.00    +0.000 HD
ATOM     15  H   UNL     1     -19.562  -1.016   5.878  0.00  0.00    +0.000 HD
ATOM     16  H   UNL     1     -21.215   0.602   7.327  0.00  0.00    +0.000 HD
ATOM     17  H   UNL     1     -19.912  -0.299   8.179  0.00  0.00    +0.000 HD
ENDBRANCH   4   9
ENDBRANCH   1   4
BRANCH   1  18
ATOM     18  C   UNL     1     -20.431  -4.168   3.354  0.00  0.00    +0.000 C 
ATOM     19  H   UNL     1     -20.282  -3.768   2.343  0.00  0.00    +0.000 HD
ATOM     20  H   UNL     1     -21.261  -4.884   3.300  0.00  0.00    +0.000 HD
BRANCH  18  21
ATOM     21  C   UNL     1     -19.163  -4.894   3.810  0.00  0.00    +0.000 C 
ATOM     22  H   UNL     1     -19.423  -5.911   4.131  0.00  0.00    +0.000 HD
ATOM     23  H   UNL     1     -18.750  -4.382   4.688  0.00  0.00    +0.000 HD
BRANCH  21  24
ATOM     24  C   UNL     1     -18.087  -4.975   2.725  0.00  0.00    +0.000 C 
ATOM     25  H   UNL     1     -17.227  -4.364   3.021  0.00  0.00    +0.000 HD
ATOM     26  H   UNL     1     -17.731  -6.010   2.645  0.00  0.00    +0.000 HD
BRANCH  24  27
ATOM     27  C   UNL     1     -18.568  -4.517   1.357  0.00  0.00    +0.000 C 
ATOM     28  H   UNL     1     -19.478  -5.054   1.075  0.00  0.00    +0.000 HD
ATOM     29  H   UNL     1     -17.809  -4.705   0.593  0.00  0.00    +0.000 HD
ATOM     30  H   UNL     1     -18.793  -3.445   1.362  0.00  0.00    +0.000 HD
ENDBRANCH  24  27
ENDBRANCH  21  24
ENDBRANCH  18  21
ENDBRANCH   1  18
TORSDOF 6
ENDMDL
MODEL 10
REMARK VINA RESULT:    -4.704     17.880     18.706
REMARK INTER + INTRA:          -6.461
REMARK INTER:                  -6.216
REMARK INTRA:                  -0.245
REMARK UNBOUND:                -0.245
REMARK  Name = 12813
REMARK  6 active torsions:
REMARK  status: ('A' for Active; 'I' for Inactive)
REMARK    1  A    between atoms: C_3  and  C_4
REMARK    2  A    between atoms: C_4  and  C_6
REMARK    3  A    between atoms: C_6  and  C_7
REMARK    4  A    between atoms: C_7  and  C_9
REMARK    5  A    between atoms: C_9  and  C_11
REMARK    6  A    between atoms: C_11  and  C_12
REMARK                            x       y       z     vdW  Elec       q    Type
REMARK                         _______ _______ _______ _____ _____    ______ ____
ROOT
ATOM      1  C   UNL     1      -0.303  -0.026 -12.112  0.00  0.00    +0.000 C 
ATOM      2  H   UNL     1       0.171   0.385 -11.213  0.00  0.00    +0.000 HD
ATOM      3  H   UNL     1      -0.313   0.770 -12.866  0.00  0.00    +0.000 HD
ENDROOT
BRANCH   1   4
ATOM      4  C   UNL     1       0.505  -1.219 -12.620  0.00  0.00    +0.000 C 
ATOM      5  H   UNL     1       1.079  -1.658 -11.794  0.00  0.00    +0.000 HD
ATOM      6  H   UNL     1      -0.195  -1.985 -12.977  0.00  0.00    +0.000 HD
BRANCH   4   9
ATOM      7  O   UNL     1       2.743  -1.378 -13.515  0.00  0.00    +0.000 OA
ATOM      8  O   UNL     1       4.893  -0.741 -13.996  0.00  0.00    +0.000 OA
ATOM      9  C   UNL     1       1.442  -0.818 -13.742  0.00  0.00    +0.000 C 
ATOM     10  C   UNL     1       1.683   0.672 -13.817  0.00  0.00    +0.000 C 
ATOM     11  C   UNL     1       3.041   0.744 -14.473  0.00  0.00    +0.000 C 
ATOM     12  C   UNL     1       3.696  -0.509 -13.973  0.00  0.00    +0.000 C 
ATOM     13  H   UNL     1       1.075  -1.203 -14.703  0.00  0.00    +0.000 HD
ATOM     14  H   UNL     1       1.742   1.111 -12.813  0.00  0.00    +0.000 HD
ATOM     15  H   UNL     1       0.906   1.205 -14.372  0.00  0.00    +0.000 HD
ATOM     16  H   UNL     1       3.593   1.632 -14.157  0.00  0.00    +0.000 HD
ATOM     17  H   UNL     1       2.969   0.700 -15.564  0.00  0.00    +0.000 HD
ENDBRANCH   4   9
ENDBRANCH   1   4
BRANCH   1  18
ATOM     18  C   UNL     1      -1.746  -0.427 -11.791  0.00  0.00    +0.000 C 
ATOM     19  H   UNL     1      -1.949  -1.428 -12.191  0.00  0.00    +0.000 HD
ATOM     20  H   UNL     1      -2.440   0.266 -12.281  0.00  0.00    +0.000 HD
BRANCH  18  21
ATOM     21  C   UNL     1      -2.001  -0.417 -10.282  0.00  0.00    +0.000 C 
ATOM     22  H   UNL     1      -2.096   0.620  -9.937  0.00  0.00    +0.000 HD
ATOM     23  H   UNL     1      -1.131  -0.843  -9.766  0.00  0.00    +0.000 HD
BRANCH  21  24
ATOM     24  C   UNL     1      -3.255  -1.194  -9.873  0.00  0.00    +0.000 C 
ATOM     25  H   UNL     1      -3.388  -2.047 -10.548  0.00  0.00    +0.000 HD
ATOM     26  H   UNL     1      -3.114  -1.603  -8.865  0.00  0.00    +0.000 HD
BRANCH  24  27
ATOM     27  C   UNL     1      -4.521  -0.352  -9.889  0.00  0.00    +0.000 C 
ATOM     28  H   UNL     1      -5.270  -0.805 -10.545  0.00  0.00    +0.000 HD
ATOM     29  H   UNL     1      -4.314   0.658 -10.253  0.00  0.00    +0.000 HD
ATOM     30  H   UNL     1      -4.950  -0.274  -8.884  0.00  0.00    +0.000 HD
ENDBRANCH  24  27
ENDBRANCH  21  24
ENDBRANCH  18  21
ENDBRANCH   1  18
TORSDOF 6
ENDMDL
