MODEL 1
REMARK VINA RESULT:    -5.431      0.000      0.000
REMARK INTER + INTRA:          -8.711
REMARK INTER:                  -7.957
REMARK INTRA:                  -0.755
REMARK UNBOUND:                -0.740
REMARK  Name = 1549026
REMARK  10 active torsions:
REMARK  status: ('A' for Active; 'I' for Inactive)
REMARK    1  A    between atoms: O_1  and  C_10
REMARK    2  A    between atoms: O_1  and  C_13
REMARK    3  A    between atoms: C_3  and  C_4
REMARK    4  A    between atoms: C_3  and  C_5
REMARK    5  A    between atoms: C_4  and  C_6
REMARK    6  A    between atoms: C_5  and  C_8
REMARK    7  A    between atoms: C_7  and  C_10
REMARK    8  A    between atoms: C_9  and  C_11
REMARK    9  A    between atoms: C_9  and  C_12
REMARK   10  A    between atoms: C_13  and  C_14
REMARK                            x       y       z     vdW  Elec       q    Type
REMARK                         _______ _______ _______ _____ _____    ______ ____
ROOT
ATOM      1  C   UNL     1       7.312   8.815   1.717  0.00  0.00    +0.000 C 
ATOM      2  H   UNL     1       8.220   8.325   1.344  0.00  0.00    +0.000 HD
ATOM      3  H   UNL     1       7.511   9.894   1.673  0.00  0.00    +0.000 HD
ENDROOT
BRANCH   1   4
ATOM      4  C   UNL     1       6.142   8.483   0.781  0.00  0.00    +0.000 C 
ATOM      5  H   UNL     1       5.542   7.679   1.212  0.00  0.00    +0.000 HD
ATOM      6  H   UNL     1       6.557   8.075  -0.149  0.00  0.00    +0.000 HD
BRANCH   4   7
ATOM      7  C   UNL     1       5.327   9.695   0.421  0.00  0.00    +0.000 C 
ATOM      8  C   UNL     1       4.202  10.143   1.010  0.00  0.00    +0.000 C 
ATOM      9  H   UNL     1       5.706  10.246  -0.438  0.00  0.00    +0.000 HD
BRANCH   8  10
ATOM     10  C   UNL     1       3.519  11.384   0.496  0.00  0.00    +0.000 C 
ATOM     11  H   UNL     1       3.067  11.938   1.326  0.00  0.00    +0.000 HD
ATOM     12  H   UNL     1       4.211  12.060  -0.017  0.00  0.00    +0.000 HD
ATOM     13  H   UNL     1       2.730  11.115  -0.214  0.00  0.00    +0.000 HD
ENDBRANCH   8  10
BRANCH   8  14
ATOM     14  C   UNL     1       3.530   9.513   2.195  0.00  0.00    +0.000 C 
ATOM     15  H   UNL     1       4.081   8.619   2.507  0.00  0.00    +0.000 HD
ATOM     16  H   UNL     1       3.463  10.166   3.067  0.00  0.00    +0.000 HD
ATOM     17  H   UNL     1       2.511   9.210   1.930  0.00  0.00    +0.000 HD
ENDBRANCH   8  14
ENDBRANCH   4   7
ENDBRANCH   1   4
BRANCH   1  18
ATOM     18  C   UNL     1       7.083   8.392   3.153  0.00  0.00    +0.000 C 
ATOM     19  C   UNL     1       7.663   8.964   4.226  0.00  0.00    +0.000 C 
ATOM     20  H   UNL     1       8.321   9.813   4.048  0.00  0.00    +0.000 HD
BRANCH  18  21
ATOM     21  C   UNL     1       6.153   7.220   3.335  0.00  0.00    +0.000 C 
ATOM     22  H   UNL     1       5.163   7.576   3.639  0.00  0.00    +0.000 HD
ATOM     23  H   UNL     1       6.526   6.549   4.114  0.00  0.00    +0.000 HD
ATOM     24  H   UNL     1       6.011   6.603   2.447  0.00  0.00    +0.000 HD
ENDBRANCH  18  21
BRANCH  19  25
ATOM     25  C   UNL     1       7.513   8.583   5.665  0.00  0.00    +0.000 C 
ATOM     26  H   UNL     1       8.514   8.421   6.084  0.00  0.00    +0.000 HD
ATOM     27  H   UNL     1       6.953   7.654   5.804  0.00  0.00    +0.000 HD
BRANCH  25  28
ATOM     28  O   UNL     1       6.888   9.657   6.355  0.00  0.00    +0.000 OA
BRANCH  28  30
ATOM     29  O   UNL     1       7.721  11.691   7.068  0.00  0.00    +0.000 OA
ATOM     30  C   UNL     1       7.721  10.467   7.077  0.00  0.00    +0.000 C 
BRANCH  30  31
ATOM     31  C   UNL     1       8.657   9.633   7.898  0.00  0.00    +0.000 C 
ATOM     32  H   UNL     1       8.946  10.179   8.799  0.00  0.00    +0.000 HD
ATOM     33  H   UNL     1       9.537   9.373   7.306  0.00  0.00    +0.000 HD
ATOM     34  H   UNL     1       8.152   8.710   8.198  0.00  0.00    +0.000 HD
ENDBRANCH  30  31
ENDBRANCH  28  30
ENDBRANCH  25  28
ENDBRANCH  19  25
ENDBRANCH   1  18
TORSDOF 10
ENDMDL
MODEL 2
REMARK VINA RESULT:    -5.403      2.739      6.130
REMARK INTER + INTRA:          -8.670
REMARK INTER:                  -8.112
REMARK INTRA:                  -0.558
REMARK UNBOUND:                -0.740
REMARK  Name = 1549026
REMARK  10 active torsions:
REMARK  status: ('A' for Active; 'I' for Inactive)
REMARK    1  A    between atoms: O_1  and  C_10
REMARK    2  A    between atoms: O_1  and  C_13
REMARK    3  A    between atoms: C_3  and  C_4
REMARK    4  A    between atoms: C_3  and  C_5
REMARK    5  A    between atoms: C_4  and  C_6
REMARK    6  A    between atoms: C_5  and  C_8
REMARK    7  A    between atoms: C_7  and  C_10
REMARK    8  A    between atoms: C_9  and  C_11
REMARK    9  A    between atoms: C_9  and  C_12
REMARK   10  A    between atoms: C_13  and  C_14
REMARK                            x       y       z     vdW  Elec       q    Type
REMARK                         _______ _______ _______ _____ _____    ______ ____
ROOT
ATOM      1  C   UNL     1       5.837   7.576   4.753  0.00  0.00    +0.000 C 
ATOM      2  H   UNL     1       5.807   6.479   4.745  0.00  0.00    +0.000 HD
ATOM      3  H   UNL     1       5.080   7.895   5.482  0.00  0.00    +0.000 HD
ENDROOT
BRANCH   1   4
ATOM      4  C   UNL     1       7.220   8.036   5.232  0.00  0.00    +0.000 C 
ATOM      5  H   UNL     1       7.928   8.002   4.401  0.00  0.00    +0.000 HD
ATOM      6  H   UNL     1       7.588   7.303   5.962  0.00  0.00    +0.000 HD
BRANCH   4   7
ATOM      7  C   UNL     1       7.180   9.376   5.914  0.00  0.00    +0.000 C 
ATOM      8  C   UNL     1       7.882   9.781   6.989  0.00  0.00    +0.000 C 
ATOM      9  H   UNL     1       6.474  10.078   5.474  0.00  0.00    +0.000 HD
BRANCH   8  10
ATOM     10  C   UNL     1       7.698  11.172   7.535  0.00  0.00    +0.000 C 
ATOM     11  H   UNL     1       6.641  11.354   7.759  0.00  0.00    +0.000 HD
ATOM     12  H   UNL     1       8.266  11.339   8.456  0.00  0.00    +0.000 HD
ATOM     13  H   UNL     1       8.030  11.914   6.801  0.00  0.00    +0.000 HD
ENDBRANCH   8  10
BRANCH   8  14
ATOM     14  C   UNL     1       8.892   8.954   7.731  0.00  0.00    +0.000 C 
ATOM     15  H   UNL     1       8.956   9.286   8.772  0.00  0.00    +0.000 HD
ATOM     16  H   UNL     1       8.664   7.887   7.751  0.00  0.00    +0.000 HD
ATOM     17  H   UNL     1       9.881   9.071   7.273  0.00  0.00    +0.000 HD
ENDBRANCH   8  14
ENDBRANCH   4   7
ENDBRANCH   1   4
BRANCH   1  18
ATOM     18  C   UNL     1       5.469   8.083   3.374  0.00  0.00    +0.000 C 
ATOM     19  C   UNL     1       4.249   8.530   3.018  0.00  0.00    +0.000 C 
ATOM     20  H   UNL     1       3.480   8.557   3.789  0.00  0.00    +0.000 HD
BRANCH  18  21
ATOM     21  C   UNL     1       6.579   8.033   2.355  0.00  0.00    +0.000 C 
ATOM     22  H   UNL     1       6.246   7.477   1.472  0.00  0.00    +0.000 HD
ATOM     23  H   UNL     1       7.456   7.524   2.765  0.00  0.00    +0.000 HD
ATOM     24  H   UNL     1       6.929   9.005   2.007  0.00  0.00    +0.000 HD
ENDBRANCH  18  21
BRANCH  19  25
ATOM     25  C   UNL     1       3.802   9.015   1.675  0.00  0.00    +0.000 C 
ATOM     26  H   UNL     1       3.024   8.335   1.307  0.00  0.00    +0.000 HD
ATOM     27  H   UNL     1       4.606   9.014   0.934  0.00  0.00    +0.000 HD
BRANCH  25  28
ATOM     28  O   UNL     1       3.252  10.317   1.824  0.00  0.00    +0.000 OA
BRANCH  28  30
ATOM     29  O   UNL     1       2.758  12.036   0.361  0.00  0.00    +0.000 OA
ATOM     30  C   UNL     1       3.527  11.198   0.814  0.00  0.00    +0.000 C 
BRANCH  30  31
ATOM     31  C   UNL     1       4.929  10.994   0.326  0.00  0.00    +0.000 C 
ATOM     32  H   UNL     1       5.531  11.879   0.545  0.00  0.00    +0.000 HD
ATOM     33  H   UNL     1       4.920  10.789  -0.747  0.00  0.00    +0.000 HD
ATOM     34  H   UNL     1       5.371  10.136   0.841  0.00  0.00    +0.000 HD
ENDBRANCH  30  31
ENDBRANCH  28  30
ENDBRANCH  25  28
ENDBRANCH  19  25
ENDBRANCH   1  18
TORSDOF 10
ENDMDL
MODEL 3
REMARK VINA RESULT:    -5.137     29.020     30.331
REMARK INTER + INTRA:          -8.279
REMARK INTER:                  -7.476
REMARK INTRA:                  -0.803
REMARK UNBOUND:                -0.740
REMARK  Name = 1549026
REMARK  10 active torsions:
REMARK  status: ('A' for Active; 'I' for Inactive)
REMARK    1  A    between atoms: O_1  and  C_10
REMARK    2  A    between atoms: O_1  and  C_13
REMARK    3  A    between atoms: C_3  and  C_4
REMARK    4  A    between atoms: C_3  and  C_5
REMARK    5  A    between atoms: C_4  and  C_6
REMARK    6  A    between atoms: C_5  and  C_8
REMARK    7  A    between atoms: C_7  and  C_10
REMARK    8  A    between atoms: C_9  and  C_11
REMARK    9  A    between atoms: C_9  and  C_12
REMARK   10  A    between atoms: C_13  and  C_14
REMARK                            x       y       z     vdW  Elec       q    Type
REMARK                         _______ _______ _______ _____ _____    ______ ____
ROOT
ATOM      1  C   UNL     1     -20.613  -0.643   5.823  0.00  0.00    +0.000 C 
ATOM      2  H   UNL     1     -21.501  -0.016   5.675  0.00  0.00    +0.000 HD
ATOM      3  H   UNL     1     -19.767  -0.071   5.419  0.00  0.00    +0.000 HD
ENDROOT
BRANCH   1   4
ATOM      4  C   UNL     1     -20.397  -0.861   7.326  0.00  0.00    +0.000 C 
ATOM      5  H   UNL     1     -19.448  -0.416   7.632  0.00  0.00    +0.000 HD
ATOM      6  H   UNL     1     -20.287  -1.939   7.501  0.00  0.00    +0.000 HD
BRANCH   4   7
ATOM      7  C   UNL     1     -21.560  -0.385   8.153  0.00  0.00    +0.000 C 
ATOM      8  C   UNL     1     -22.510  -1.126   8.754  0.00  0.00    +0.000 C 
ATOM      9  H   UNL     1     -21.628   0.698   8.243  0.00  0.00    +0.000 HD
BRANCH   8  10
ATOM     10  C   UNL     1     -23.609  -0.459   9.540  0.00  0.00    +0.000 C 
ATOM     11  H   UNL     1     -23.182   0.160  10.336  0.00  0.00    +0.000 HD
ATOM     12  H   UNL     1     -24.236   0.188   8.917  0.00  0.00    +0.000 HD
ATOM     13  H   UNL     1     -24.259  -1.213   9.995  0.00  0.00    +0.000 HD
ENDBRANCH   8  10
BRANCH   8  14
ATOM     14  C   UNL     1     -22.587  -2.625   8.734  0.00  0.00    +0.000 C 
ATOM     15  H   UNL     1     -21.579  -3.051   8.691  0.00  0.00    +0.000 HD
ATOM     16  H   UNL     1     -23.077  -3.056   9.608  0.00  0.00    +0.000 HD
ATOM     17  H   UNL     1     -23.137  -2.960   7.847  0.00  0.00    +0.000 HD
ENDBRANCH   8  14
ENDBRANCH   4   7
ENDBRANCH   1   4
BRANCH   1  18
ATOM     18  C   UNL     1     -20.786  -1.927   5.039  0.00  0.00    +0.000 C 
ATOM     19  C   UNL     1     -20.584  -3.164   5.532  0.00  0.00    +0.000 C 
ATOM     20  H   UNL     1     -20.305  -3.246   6.582  0.00  0.00    +0.000 HD
BRANCH  18  21
ATOM     21  C   UNL     1     -21.186  -1.748   3.596  0.00  0.00    +0.000 C 
ATOM     22  H   UNL     1     -21.825  -2.581   3.283  0.00  0.00    +0.000 HD
ATOM     23  H   UNL     1     -20.304  -1.736   2.950  0.00  0.00    +0.000 HD
ATOM     24  H   UNL     1     -21.731  -0.829   3.380  0.00  0.00    +0.000 HD
ENDBRANCH  18  21
BRANCH  19  25
ATOM     25  C   UNL     1     -20.703  -4.472   4.816  0.00  0.00    +0.000 C 
ATOM     26  H   UNL     1     -21.163  -4.286   3.837  0.00  0.00    +0.000 HD
ATOM     27  H   UNL     1     -21.342  -5.187   5.340  0.00  0.00    +0.000 HD
BRANCH  25  28
ATOM     28  O   UNL     1     -19.399  -5.004   4.625  0.00  0.00    +0.000 OA
BRANCH  28  30
ATOM     29  O   UNL     1     -17.849  -4.937   2.913  0.00  0.00    +0.000 OA
ATOM     30  C   UNL     1     -18.987  -5.119   3.326  0.00  0.00    +0.000 C 
BRANCH  30  31
ATOM     31  C   UNL     1     -20.144  -5.506   2.456  0.00  0.00    +0.000 C 
ATOM     32  H   UNL     1     -19.828  -6.261   1.733  0.00  0.00    +0.000 HD
ATOM     33  H   UNL     1     -20.534  -4.623   1.946  0.00  0.00    +0.000 HD
ATOM     34  H   UNL     1     -20.939  -5.930   3.077  0.00  0.00    +0.000 HD
ENDBRANCH  30  31
ENDBRANCH  28  30
ENDBRANCH  25  28
ENDBRANCH  19  25
ENDBRANCH   1  18
TORSDOF 10
ENDMDL
MODEL 4
REMARK VINA RESULT:    -4.929     16.926     18.535
REMARK INTER + INTRA:          -7.974
REMARK INTER:                  -7.319
REMARK INTRA:                  -0.655
REMARK UNBOUND:                -0.740
REMARK  Name = 1549026
REMARK  10 active torsions:
REMARK  status: ('A' for Active; 'I' for Inactive)
REMARK    1  A    between atoms: O_1  and  C_10
REMARK    2  A    between atoms: O_1  and  C_13
REMARK    3  A    between atoms: C_3  and  C_4
REMARK    4  A    between atoms: C_3  and  C_5
REMARK    5  A    between atoms: C_4  and  C_6
REMARK    6  A    between atoms: C_5  and  C_8
REMARK    7  A    between atoms: C_7  and  C_10
REMARK    8  A    between atoms: C_9  and  C_11
REMARK    9  A    between atoms: C_9  and  C_12
REMARK   10  A    between atoms: C_13  and  C_14
REMARK                            x       y       z     vdW  Elec       q    Type
REMARK                         _______ _______ _______ _____ _____    ______ ____
ROOT
ATOM      1  C   UNL     1      -1.082  10.079 -10.709  0.00  0.00    +0.000 C 
ATOM      2  H   UNL     1      -0.801  11.102 -10.430  0.00  0.00    +0.000 HD
ATOM      3  H   UNL     1      -0.505   9.416 -10.052  0.00  0.00    +0.000 HD
ENDROOT
BRANCH   1   4
ATOM      4  C   UNL     1      -2.579   9.879 -10.433  0.00  0.00    +0.000 C 
ATOM      5  H   UNL     1      -3.121   9.798 -11.378  0.00  0.00    +0.000 HD
ATOM      6  H   UNL     1      -2.961  10.789  -9.952  0.00  0.00    +0.000 HD
BRANCH   4   7
ATOM      7  C   UNL     1      -2.847   8.728  -9.504  0.00  0.00    +0.000 C 
ATOM      8  C   UNL     1      -3.201   7.468  -9.822  0.00  0.00    +0.000 C 
ATOM      9  H   UNL     1      -2.755   8.978  -8.448  0.00  0.00    +0.000 HD
BRANCH   8  10
ATOM     10  C   UNL     1      -3.434   6.448  -8.739  0.00  0.00    +0.000 C 
ATOM     11  H   UNL     1      -2.804   5.568  -8.906  0.00  0.00    +0.000 HD
ATOM     12  H   UNL     1      -3.204   6.836  -7.742  0.00  0.00    +0.000 HD
ATOM     13  H   UNL     1      -4.482   6.130  -8.738  0.00  0.00    +0.000 HD
ENDBRANCH   8  10
BRANCH   8  14
ATOM     14  C   UNL     1      -3.383   6.942 -11.217  0.00  0.00    +0.000 C 
ATOM     15  H   UNL     1      -3.428   5.848 -11.202  0.00  0.00    +0.000 HD
ATOM     16  H   UNL     1      -4.293   7.291 -11.708  0.00  0.00    +0.000 HD
ATOM     17  H   UNL     1      -2.535   7.241 -11.843  0.00  0.00    +0.000 HD
ENDBRANCH   8  14
ENDBRANCH   4   7
ENDBRANCH   1   4
BRANCH   1  18
ATOM     18  C   UNL     1      -0.692   9.842 -12.153  0.00  0.00    +0.000 C 
ATOM     19  C   UNL     1      -0.677  10.787 -13.112  0.00  0.00    +0.000 C 
ATOM     20  H   UNL     1      -0.936  11.804 -12.818  0.00  0.00    +0.000 HD
BRANCH  18  21
ATOM     21  C   UNL     1      -0.332   8.418 -12.493  0.00  0.00    +0.000 C 
ATOM     22  H   UNL     1       0.249   7.977 -11.676  0.00  0.00    +0.000 HD
ATOM     23  H   UNL     1       0.277   8.380 -13.400  0.00  0.00    +0.000 HD
ATOM     24  H   UNL     1      -1.182   7.759 -12.672  0.00  0.00    +0.000 HD
ENDBRANCH  18  21
BRANCH  19  25
ATOM     25  C   UNL     1      -0.336  10.625 -14.560  0.00  0.00    +0.000 C 
ATOM     26  H   UNL     1      -0.873  11.395 -15.127  0.00  0.00    +0.000 HD
ATOM     27  H   UNL     1      -0.644   9.656 -14.963  0.00  0.00    +0.000 HD
BRANCH  25  28
ATOM     28  O   UNL     1       1.063  10.818 -14.719  0.00  0.00    +0.000 OA
BRANCH  28  30
ATOM     29  O   UNL     1       1.198  11.986 -16.708  0.00  0.00    +0.000 OA
ATOM     30  C   UNL     1       1.432  11.869 -15.512  0.00  0.00    +0.000 C 
BRANCH  30  31
ATOM     31  C   UNL     1       2.180  12.883 -14.700  0.00  0.00    +0.000 C 
ATOM     32  H   UNL     1       1.478  13.469 -14.102  0.00  0.00    +0.000 HD
ATOM     33  H   UNL     1       2.758  13.532 -15.361  0.00  0.00    +0.000 HD
ATOM     34  H   UNL     1       2.869  12.369 -14.024  0.00  0.00    +0.000 HD
ENDBRANCH  30  31
ENDBRANCH  28  30
ENDBRANCH  25  28
ENDBRANCH  19  25
ENDBRANCH   1  18
TORSDOF 10
ENDMDL
MODEL 5
REMARK VINA RESULT:    -4.839     14.140     15.773
REMARK INTER + INTRA:          -7.842
REMARK INTER:                  -7.182
REMARK INTRA:                  -0.660
REMARK UNBOUND:                -0.740
REMARK  Name = 1549026
REMARK  10 active torsions:
REMARK  status: ('A' for Active; 'I' for Inactive)
REMARK    1  A    between atoms: O_1  and  C_10
REMARK    2  A    between atoms: O_1  and  C_13
REMARK    3  A    between atoms: C_3  and  C_4
REMARK    4  A    between atoms: C_3  and  C_5
REMARK    5  A    between atoms: C_4  and  C_6
REMARK    6  A    between atoms: C_5  and  C_8
REMARK    7  A    between atoms: C_7  and  C_10
REMARK    8  A    between atoms: C_9  and  C_11
REMARK    9  A    between atoms: C_9  and  C_12
REMARK   10  A    between atoms: C_13  and  C_14
REMARK                            x       y       z     vdW  Elec       q    Type
REMARK                         _______ _______ _______ _____ _____    ______ ____
ROOT
ATOM      1  C   UNL     1      -9.038  10.707   6.397  0.00  0.00    +0.000 C 
ATOM      2  H   UNL     1      -9.803  11.485   6.510  0.00  0.00    +0.000 HD
ATOM      3  H   UNL     1      -9.571   9.800   6.084  0.00  0.00    +0.000 HD
ENDROOT
BRANCH   1   4
ATOM      4  C   UNL     1      -8.062  11.122   5.288  0.00  0.00    +0.000 C 
ATOM      5  H   UNL     1      -8.053  10.364   4.502  0.00  0.00    +0.000 HD
ATOM      6  H   UNL     1      -7.048  11.121   5.710  0.00  0.00    +0.000 HD
BRANCH   4   7
ATOM      7  C   UNL     1      -8.334  12.505   4.765  0.00  0.00    +0.000 C 
ATOM      8  C   UNL     1      -7.535  13.587   4.822  0.00  0.00    +0.000 C 
ATOM      9  H   UNL     1      -9.315  12.622   4.306  0.00  0.00    +0.000 HD
BRANCH   8  10
ATOM     10  C   UNL     1      -7.991  14.900   4.243  0.00  0.00    +0.000 C 
ATOM     11  H   UNL     1      -8.760  14.731   3.481  0.00  0.00    +0.000 HD
ATOM     12  H   UNL     1      -8.417  15.567   5.000  0.00  0.00    +0.000 HD
ATOM     13  H   UNL     1      -7.149  15.422   3.777  0.00  0.00    +0.000 HD
ENDBRANCH   8  10
BRANCH   8  14
ATOM     14  C   UNL     1      -6.158  13.620   5.421  0.00  0.00    +0.000 C 
ATOM     15  H   UNL     1      -5.488  12.965   4.854  0.00  0.00    +0.000 HD
ATOM     16  H   UNL     1      -5.702  14.611   5.429  0.00  0.00    +0.000 HD
ATOM     17  H   UNL     1      -6.191  13.263   6.456  0.00  0.00    +0.000 HD
ENDBRANCH   8  14
ENDBRANCH   4   7
ENDBRANCH   1   4
BRANCH   1  18
ATOM     18  C   UNL     1      -8.374  10.477   7.739  0.00  0.00    +0.000 C 
ATOM     19  C   UNL     1      -8.298   9.287   8.366  0.00  0.00    +0.000 C 
ATOM     20  H   UNL     1      -8.717   8.422   7.854  0.00  0.00    +0.000 HD
BRANCH  18  21
ATOM     21  C   UNL     1      -7.801  11.710   8.391  0.00  0.00    +0.000 C 
ATOM     22  H   UNL     1      -7.534  11.490   9.430  0.00  0.00    +0.000 HD
ATOM     23  H   UNL     1      -8.535  12.520   8.394  0.00  0.00    +0.000 HD
ATOM     24  H   UNL     1      -6.909  12.112   7.910  0.00  0.00    +0.000 HD
ENDBRANCH  18  21
BRANCH  19  25
ATOM     25  C   UNL     1      -7.690   8.987   9.700  0.00  0.00    +0.000 C 
ATOM     26  H   UNL     1      -7.541   9.936  10.230  0.00  0.00    +0.000 HD
ATOM     27  H   UNL     1      -6.711   8.506   9.623  0.00  0.00    +0.000 HD
BRANCH  25  28
ATOM     28  O   UNL     1      -8.595   8.178  10.438  0.00  0.00    +0.000 OA
BRANCH  28  30
ATOM     29  O   UNL     1      -9.385  10.008  11.607  0.00  0.00    +0.000 OA
ATOM     30  C   UNL     1      -9.491   8.850  11.224  0.00  0.00    +0.000 C 
BRANCH  30  31
ATOM     31  C   UNL     1     -10.645   7.956  11.562  0.00  0.00    +0.000 C 
ATOM     32  H   UNL     1     -11.483   8.164  10.893  0.00  0.00    +0.000 HD
ATOM     33  H   UNL     1     -10.936   8.106  12.603  0.00  0.00    +0.000 HD
ATOM     34  H   UNL     1     -10.346   6.912  11.430  0.00  0.00    +0.000 HD
ENDBRANCH  30  31
ENDBRANCH  28  30
ENDBRANCH  25  28
ENDBRANCH  19  25
ENDBRANCH   1  18
TORSDOF 10
ENDMDL
MODEL 6
REMARK VINA RESULT:    -4.691      3.008      6.407
REMARK INTER + INTRA:          -7.624
REMARK INTER:                  -7.256
REMARK INTRA:                  -0.368
REMARK UNBOUND:                -0.740
REMARK  Name = 1549026
REMARK  10 active torsions:
REMARK  status: ('A' for Active; 'I' for Inactive)
REMARK    1  A    between atoms: O_1  and  C_10
REMARK    2  A    between atoms: O_1  and  C_13
REMARK    3  A    between atoms: C_3  and  C_4
REMARK    4  A    between atoms: C_3  and  C_5
REMARK    5  A    between atoms: C_4  and  C_6
REMARK    6  A    between atoms: C_5  and  C_8
REMARK    7  A    between atoms: C_7  and  C_10
REMARK    8  A    between atoms: C_9  and  C_11
REMARK    9  A    between atoms: C_9  and  C_12
REMARK   10  A    between atoms: C_13  and  C_14
REMARK                            x       y       z     vdW  Elec       q    Type
REMARK                         _______ _______ _______ _____ _____    ______ ____
ROOT
ATOM      1  C   UNL     1       6.877   8.353   5.129  0.00  0.00    +0.000 C 
ATOM      2  H   UNL     1       6.886   7.382   5.639  0.00  0.00    +0.000 HD
ATOM      3  H   UNL     1       5.993   8.884   5.504  0.00  0.00    +0.000 HD
ENDROOT
BRANCH   1   4
ATOM      4  C   UNL     1       8.136   9.137   5.522  0.00  0.00    +0.000 C 
ATOM      5  H   UNL     1       8.682   9.433   4.623  0.00  0.00    +0.000 HD
ATOM      6  H   UNL     1       8.806   8.455   6.062  0.00  0.00    +0.000 HD
BRANCH   4   7
ATOM      7  C   UNL     1       7.836  10.295   6.433  0.00  0.00    +0.000 C 
ATOM      8  C   UNL     1       8.047  10.383   7.760  0.00  0.00    +0.000 C 
ATOM      9  H   UNL     1       7.374  11.145   5.934  0.00  0.00    +0.000 HD
BRANCH   8  10
ATOM     10  C   UNL     1       7.670  11.636   8.507  0.00  0.00    +0.000 C 
ATOM     11  H   UNL     1       7.170  11.380   9.447  0.00  0.00    +0.000 HD
ATOM     12  H   UNL     1       8.539  12.255   8.751  0.00  0.00    +0.000 HD
ATOM     13  H   UNL     1       6.988  12.245   7.904  0.00  0.00    +0.000 HD
ENDBRANCH   8  10
BRANCH   8  14
ATOM     14  C   UNL     1       8.663   9.315   8.616  0.00  0.00    +0.000 C 
ATOM     15  H   UNL     1       8.436   8.327   8.203  0.00  0.00    +0.000 HD
ATOM     16  H   UNL     1       9.749   9.383   8.698  0.00  0.00    +0.000 HD
ATOM     17  H   UNL     1       8.252   9.364   9.630  0.00  0.00    +0.000 HD
ENDBRANCH   8  14
ENDBRANCH   4   7
ENDBRANCH   1   4
BRANCH   1  18
ATOM     18  C   UNL     1       6.744   8.121   3.638  0.00  0.00    +0.000 C 
ATOM     19  C   UNL     1       7.419   8.798   2.690  0.00  0.00    +0.000 C 
ATOM     20  H   UNL     1       8.137   9.547   3.023  0.00  0.00    +0.000 HD
BRANCH  18  21
ATOM     21  C   UNL     1       5.746   7.063   3.241  0.00  0.00    +0.000 C 
ATOM     22  H   UNL     1       5.721   6.968   2.150  0.00  0.00    +0.000 HD
ATOM     23  H   UNL     1       4.742   7.334   3.580  0.00  0.00    +0.000 HD
ATOM     24  H   UNL     1       5.943   6.069   3.643  0.00  0.00    +0.000 HD
ENDBRANCH  18  21
BRANCH  19  25
ATOM     25  C   UNL     1       7.320   8.650   1.204  0.00  0.00    +0.000 C 
ATOM     26  H   UNL     1       6.458   8.008   0.981  0.00  0.00    +0.000 HD
ATOM     27  H   UNL     1       8.199   8.170   0.765  0.00  0.00    +0.000 HD
BRANCH  25  28
ATOM     28  O   UNL     1       7.106   9.934   0.634  0.00  0.00    +0.000 OA
BRANCH  28  30
ATOM     29  O   UNL     1       8.177   9.333  -1.323  0.00  0.00    +0.000 OA
ATOM     30  C   UNL     1       7.415  10.055  -0.693  0.00  0.00    +0.000 C 
BRANCH  30  31
ATOM     31  C   UNL     1       6.679  11.218  -1.284  0.00  0.00    +0.000 C 
ATOM     32  H   UNL     1       6.685  12.056  -0.584  0.00  0.00    +0.000 HD
ATOM     33  H   UNL     1       5.654  10.923  -1.523  0.00  0.00    +0.000 HD
ATOM     34  H   UNL     1       7.176  11.531  -2.207  0.00  0.00    +0.000 HD
ENDBRANCH  30  31
ENDBRANCH  28  30
ENDBRANCH  25  28
ENDBRANCH  19  25
ENDBRANCH   1  18
TORSDOF 10
ENDMDL
MODEL 7
REMARK VINA RESULT:    -4.634     19.734     20.970
REMARK INTER + INTRA:          -7.541
REMARK INTER:                  -7.050
REMARK INTRA:                  -0.491
REMARK UNBOUND:                -0.740
REMARK  Name = 1549026
REMARK  10 active torsions:
REMARK  status: ('A' for Active; 'I' for Inactive)
REMARK    1  A    between atoms: O_1  and  C_10
REMARK    2  A    between atoms: O_1  and  C_13
REMARK    3  A    between atoms: C_3  and  C_4
REMARK    4  A    between atoms: C_3  and  C_5
REMARK    5  A    between atoms: C_4  and  C_6
REMARK    6  A    between atoms: C_5  and  C_8
REMARK    7  A    between atoms: C_7  and  C_10
REMARK    8  A    between atoms: C_9  and  C_11
REMARK    9  A    between atoms: C_9  and  C_12
REMARK   10  A    between atoms: C_13  and  C_14
REMARK                            x       y       z     vdW  Elec       q    Type
REMARK                         _______ _______ _______ _____ _____    ______ ____
ROOT
ATOM      1  C   UNL     1       0.098  -1.433 -13.119  0.00  0.00    +0.000 C 
ATOM      2  H   UNL     1      -0.124  -2.250 -12.421  0.00  0.00    +0.000 HD
ATOM      3  H   UNL     1      -0.282  -1.758 -14.096  0.00  0.00    +0.000 HD
ENDROOT
BRANCH   1   4
ATOM      4  C   UNL     1      -0.664  -0.176 -12.678  0.00  0.00    +0.000 C 
ATOM      5  H   UNL     1      -1.346   0.139 -13.470  0.00  0.00    +0.000 HD
ATOM      6  H   UNL     1       0.062   0.641 -12.572  0.00  0.00    +0.000 HD
BRANCH   4   7
ATOM      7  C   UNL     1      -1.348  -0.350 -11.350  0.00  0.00    +0.000 C 
ATOM      8  C   UNL     1      -2.668  -0.443 -11.102  0.00  0.00    +0.000 C 
ATOM      9  H   UNL     1      -0.668  -0.382 -10.500  0.00  0.00    +0.000 HD
BRANCH   8  10
ATOM     10  C   UNL     1      -3.166  -0.609  -9.691  0.00  0.00    +0.000 C 
ATOM     11  H   UNL     1      -3.660  -1.580  -9.575  0.00  0.00    +0.000 HD
ATOM     12  H   UNL     1      -2.358  -0.558  -8.953  0.00  0.00    +0.000 HD
ATOM     13  H   UNL     1      -3.887   0.179  -9.448  0.00  0.00    +0.000 HD
ENDBRANCH   8  10
BRANCH   8  14
ATOM     14  C   UNL     1      -3.752  -0.411 -12.141  0.00  0.00    +0.000 C 
ATOM     15  H   UNL     1      -3.343  -0.688 -13.118  0.00  0.00    +0.000 HD
ATOM     16  H   UNL     1      -4.581  -1.092 -11.939  0.00  0.00    +0.000 HD
ATOM     17  H   UNL     1      -4.167   0.600 -12.218  0.00  0.00    +0.000 HD
ENDBRANCH   8  14
ENDBRANCH   4   7
ENDBRANCH   1   4
BRANCH   1  18
ATOM     18  C   UNL     1       1.599  -1.244 -13.188  0.00  0.00    +0.000 C 
ATOM     19  C   UNL     1       2.484  -2.213 -13.487  0.00  0.00    +0.000 C 
ATOM     20  H   UNL     1       2.087  -3.199 -13.728  0.00  0.00    +0.000 HD
BRANCH  18  21
ATOM     21  C   UNL     1       2.085   0.144 -12.856  0.00  0.00    +0.000 C 
ATOM     22  H   UNL     1       2.701   0.527 -13.678  0.00  0.00    +0.000 HD
ATOM     23  H   UNL     1       2.698   0.132 -11.951  0.00  0.00    +0.000 HD
ATOM     24  H   UNL     1       1.299   0.878 -12.678  0.00  0.00    +0.000 HD
ENDBRANCH  18  21
BRANCH  19  25
ATOM     25  C   UNL     1       3.976  -2.113 -13.543  0.00  0.00    +0.000 C 
ATOM     26  H   UNL     1       4.398  -3.029 -13.112  0.00  0.00    +0.000 HD
ATOM     27  H   UNL     1       4.368  -1.274 -12.960  0.00  0.00    +0.000 HD
BRANCH  25  28
ATOM     28  O   UNL     1       4.372  -2.012 -14.904  0.00  0.00    +0.000 OA
BRANCH  28  30
ATOM     29  O   UNL     1       5.057   0.177 -14.621  0.00  0.00    +0.000 OA
ATOM     30  C   UNL     1       5.061  -0.879 -15.241  0.00  0.00    +0.000 C 
BRANCH  30  31
ATOM     31  C   UNL     1       5.838  -1.110 -16.501  0.00  0.00    +0.000 C 
ATOM     32  H   UNL     1       5.165  -1.083 -17.361  0.00  0.00    +0.000 HD
ATOM     33  H   UNL     1       6.354  -2.071 -16.446  0.00  0.00    +0.000 HD
ATOM     34  H   UNL     1       6.585  -0.319 -16.618  0.00  0.00    +0.000 HD
ENDBRANCH  30  31
ENDBRANCH  28  30
ENDBRANCH  25  28
ENDBRANCH  19  25
ENDBRANCH   1  18
TORSDOF 10
ENDMDL
MODEL 8
REMARK VINA RESULT:    -4.546     29.536     31.304
REMARK INTER + INTRA:          -7.412
REMARK INTER:                  -6.477
REMARK INTRA:                  -0.935
REMARK UNBOUND:                -0.740
REMARK  Name = 1549026
REMARK  10 active torsions:
REMARK  status: ('A' for Active; 'I' for Inactive)
REMARK    1  A    between atoms: O_1  and  C_10
REMARK    2  A    between atoms: O_1  and  C_13
REMARK    3  A    between atoms: C_3  and  C_4
REMARK    4  A    between atoms: C_3  and  C_5
REMARK    5  A    between atoms: C_4  and  C_6
REMARK    6  A    between atoms: C_5  and  C_8
REMARK    7  A    between atoms: C_7  and  C_10
REMARK    8  A    between atoms: C_9  and  C_11
REMARK    9  A    between atoms: C_9  and  C_12
REMARK   10  A    between atoms: C_13  and  C_14
REMARK                            x       y       z     vdW  Elec       q    Type
REMARK                         _______ _______ _______ _____ _____    ______ ____
ROOT
ATOM      1  C   UNL     1     -20.554  -0.586   5.843  0.00  0.00    +0.000 C 
ATOM      2  H   UNL     1     -21.400   0.112   5.802  0.00  0.00    +0.000 HD
ATOM      3  H   UNL     1     -19.670  -0.008   5.542  0.00  0.00    +0.000 HD
ENDROOT
BRANCH   1   4
ATOM      4  C   UNL     1     -20.370  -1.066   7.289  0.00  0.00    +0.000 C 
ATOM      5  H   UNL     1     -19.368  -0.808   7.639  0.00  0.00    +0.000 HD
ATOM      6  H   UNL     1     -20.409  -2.163   7.290  0.00  0.00    +0.000 HD
BRANCH   4   7
ATOM      7  C   UNL     1     -21.456  -0.573   8.205  0.00  0.00    +0.000 C 
ATOM      8  C   UNL     1     -22.670  -1.112   8.419  0.00  0.00    +0.000 C 
ATOM      9  H   UNL     1     -21.208   0.347   8.733  0.00  0.00    +0.000 HD
BRANCH   8  10
ATOM     10  C   UNL     1     -23.631  -0.462   9.379  0.00  0.00    +0.000 C 
ATOM     11  H   UNL     1     -23.543  -0.918  10.371  0.00  0.00    +0.000 HD
ATOM     12  H   UNL     1     -23.449   0.612   9.491  0.00  0.00    +0.000 HD
ATOM     13  H   UNL     1     -24.661  -0.589   9.029  0.00  0.00    +0.000 HD
ENDBRANCH   8  10
BRANCH   8  14
ATOM     14  C   UNL     1     -23.190  -2.367   7.779  0.00  0.00    +0.000 C 
ATOM     15  H   UNL     1     -23.013  -3.224   8.438  0.00  0.00    +0.000 HD
ATOM     16  H   UNL     1     -24.260  -2.346   7.565  0.00  0.00    +0.000 HD
ATOM     17  H   UNL     1     -22.668  -2.549   6.833  0.00  0.00    +0.000 HD
ENDBRANCH   8  14
ENDBRANCH   4   7
ENDBRANCH   1   4
BRANCH   1  18
ATOM     18  C   UNL     1     -20.798  -1.707   4.854  0.00  0.00    +0.000 C 
ATOM     19  C   UNL     1     -21.262  -1.541   3.601  0.00  0.00    +0.000 C 
ATOM     20  H   UNL     1     -21.445  -0.521   3.264  0.00  0.00    +0.000 HD
BRANCH  18  21
ATOM     21  C   UNL     1     -20.513  -3.093   5.375  0.00  0.00    +0.000 C 
ATOM     22  H   UNL     1     -19.484  -3.377   5.129  0.00  0.00    +0.000 HD
ATOM     23  H   UNL     1     -21.185  -3.823   4.914  0.00  0.00    +0.000 HD
ATOM     24  H   UNL     1     -20.629  -3.213   6.452  0.00  0.00    +0.000 HD
ENDBRANCH  18  21
BRANCH  19  25
ATOM     25  C   UNL     1     -21.557  -2.595   2.581  0.00  0.00    +0.000 C 
ATOM     26  H   UNL     1     -20.870  -3.434   2.746  0.00  0.00    +0.000 HD
ATOM     27  H   UNL     1     -21.402  -2.250   1.555  0.00  0.00    +0.000 HD
BRANCH  25  28
ATOM     28  O   UNL     1     -22.893  -3.043   2.767  0.00  0.00    +0.000 OA
BRANCH  28  30
ATOM     29  O   UNL     1     -22.546  -5.314   2.519  0.00  0.00    +0.000 OA
ATOM     30  C   UNL     1     -23.038  -4.360   3.108  0.00  0.00    +0.000 C 
BRANCH  30  31
ATOM     31  C   UNL     1     -23.900  -4.479   4.327  0.00  0.00    +0.000 C 
ATOM     32  H   UNL     1     -24.948  -4.325   4.057  0.00  0.00    +0.000 HD
ATOM     33  H   UNL     1     -23.584  -3.750   5.076  0.00  0.00    +0.000 HD
ATOM     34  H   UNL     1     -23.794  -5.483   4.750  0.00  0.00    +0.000 HD
ENDBRANCH  30  31
ENDBRANCH  28  30
ENDBRANCH  25  28
ENDBRANCH  19  25
ENDBRANCH   1  18
TORSDOF 10
ENDMDL
MODEL 9
REMARK VINA RESULT:    -4.545     28.808     30.416
REMARK INTER + INTRA:          -7.411
REMARK INTER:                  -6.820
REMARK INTRA:                  -0.591
REMARK UNBOUND:                -0.740
REMARK  Name = 1549026
REMARK  10 active torsions:
REMARK  status: ('A' for Active; 'I' for Inactive)
REMARK    1  A    between atoms: O_1  and  C_10
REMARK    2  A    between atoms: O_1  and  C_13
REMARK    3  A    between atoms: C_3  and  C_4
REMARK    4  A    between atoms: C_3  and  C_5
REMARK    5  A    between atoms: C_4  and  C_6
REMARK    6  A    between atoms: C_5  and  C_8
REMARK    7  A    between atoms: C_7  and  C_10
REMARK    8  A    between atoms: C_9  and  C_11
REMARK    9  A    between atoms: C_9  and  C_12
REMARK   10  A    between atoms: C_13  and  C_14
REMARK                            x       y       z     vdW  Elec       q    Type
REMARK                         _______ _______ _______ _____ _____    ______ ____
ROOT
ATOM      1  C   UNL     1     -20.640  -0.687   5.794  0.00  0.00    +0.000 C 
ATOM      2  H   UNL     1     -21.529  -0.058   5.658  0.00  0.00    +0.000 HD
ATOM      3  H   UNL     1     -19.794  -0.102   5.413  0.00  0.00    +0.000 HD
ENDROOT
BRANCH   1   4
ATOM      4  C   UNL     1     -20.435  -0.946   7.293  0.00  0.00    +0.000 C 
ATOM      5  H   UNL     1     -19.458  -0.570   7.602  0.00  0.00    +0.000 HD
ATOM      6  H   UNL     1     -20.395  -2.032   7.447  0.00  0.00    +0.000 HD
BRANCH   4   7
ATOM      7  C   UNL     1     -21.562  -0.410   8.132  0.00  0.00    +0.000 C 
ATOM      8  C   UNL     1     -22.512  -1.102   8.788  0.00  0.00    +0.000 C 
ATOM      9  H   UNL     1     -21.600   0.678   8.182  0.00  0.00    +0.000 HD
BRANCH   8  10
ATOM     10  C   UNL     1     -23.570  -0.379   9.578  0.00  0.00    +0.000 C 
ATOM     11  H   UNL     1     -24.145   0.284   8.922  0.00  0.00    +0.000 HD
ATOM     12  H   UNL     1     -24.277  -1.064  10.058  0.00  0.00    +0.000 HD
ATOM     13  H   UNL     1     -23.108   0.226  10.365  0.00  0.00    +0.000 HD
ENDBRANCH   8  10
BRANCH   8  14
ATOM     14  C   UNL     1     -22.625  -2.599   8.829  0.00  0.00    +0.000 C 
ATOM     15  H   UNL     1     -22.131  -2.988   9.726  0.00  0.00    +0.000 HD
ATOM     16  H   UNL     1     -23.652  -2.967   8.847  0.00  0.00    +0.000 HD
ATOM     17  H   UNL     1     -22.134  -3.036   7.952  0.00  0.00    +0.000 HD
ENDBRANCH   8  14
ENDBRANCH   4   7
ENDBRANCH   1   4
BRANCH   1  18
ATOM     18  C   UNL     1     -20.805  -1.950   4.974  0.00  0.00    +0.000 C 
ATOM     19  C   UNL     1     -21.097  -1.981   3.660  0.00  0.00    +0.000 C 
ATOM     20  H   UNL     1     -21.190  -1.027   3.143  0.00  0.00    +0.000 HD
BRANCH  18  21
ATOM     21  C   UNL     1     -20.651  -3.238   5.743  0.00  0.00    +0.000 C 
ATOM     22  H   UNL     1     -19.613  -3.581   5.686  0.00  0.00    +0.000 HD
ATOM     23  H   UNL     1     -21.290  -4.018   5.320  0.00  0.00    +0.000 HD
ATOM     24  H   UNL     1     -20.910  -3.176   6.800  0.00  0.00    +0.000 HD
ENDBRANCH  18  21
BRANCH  19  25
ATOM     25  C   UNL     1     -21.306  -3.182   2.792  0.00  0.00    +0.000 C 
ATOM     26  H   UNL     1     -22.384  -3.374   2.725  0.00  0.00    +0.000 HD
ATOM     27  H   UNL     1     -20.844  -4.086   3.198  0.00  0.00    +0.000 HD
BRANCH  25  28
ATOM     28  O   UNL     1     -20.801  -2.896   1.494  0.00  0.00    +0.000 OA
BRANCH  28  30
ATOM     29  O   UNL     1     -19.421  -4.748   1.553  0.00  0.00    +0.000 OA
ATOM     30  C   UNL     1     -19.749  -3.668   1.081  0.00  0.00    +0.000 C 
BRANCH  30  31
ATOM     31  C   UNL     1     -19.037  -2.994  -0.052  0.00  0.00    +0.000 C 
ATOM     32  H   UNL     1     -18.001  -2.792   0.229  0.00  0.00    +0.000 HD
ATOM     33  H   UNL     1     -19.553  -2.068  -0.314  0.00  0.00    +0.000 HD
ATOM     34  H   UNL     1     -19.038  -3.654  -0.925  0.00  0.00    +0.000 HD
ENDBRANCH  30  31
ENDBRANCH  28  30
ENDBRANCH  25  28
ENDBRANCH  19  25
ENDBRANCH   1  18
TORSDOF 10
ENDMDL
MODEL 10
REMARK VINA RESULT:    -4.482      2.647      4.056
REMARK INTER + INTRA:          -7.318
REMARK INTER:                  -6.578
REMARK INTRA:                  -0.740
REMARK UNBOUND:                -0.740
REMARK  Name = 1549026
REMARK  10 active torsions:
REMARK  status: ('A' for Active; 'I' for Inactive)
REMARK    1  A    between atoms: O_1  and  C_10
REMARK    2  A    between atoms: O_1  and  C_13
REMARK    3  A    between atoms: C_3  and  C_4
REMARK    4  A    between atoms: C_3  and  C_5
REMARK    5  A    between atoms: C_4  and  C_6
REMARK    6  A    between atoms: C_5  and  C_8
REMARK    7  A    between atoms: C_7  and  C_10
REMARK    8  A    between atoms: C_9  and  C_11
REMARK    9  A    between atoms: C_9  and  C_12
REMARK   10  A    between atoms: C_13  and  C_14
REMARK                            x       y       z     vdW  Elec       q    Type
REMARK                         _______ _______ _______ _____ _____    ______ ____
ROOT
ATOM      1  C   UNL     1       6.756   8.968   5.863  0.00  0.00    +0.000 C 
ATOM      2  H   UNL     1       5.800   9.489   5.723  0.00  0.00    +0.000 HD
ATOM      3  H   UNL     1       6.657   8.401   6.797  0.00  0.00    +0.000 HD
ENDROOT
BRANCH   1   4
ATOM      4  C   UNL     1       6.967   7.988   4.701  0.00  0.00    +0.000 C 
ATOM      5  H   UNL     1       6.980   6.963   5.080  0.00  0.00    +0.000 HD
ATOM      6  H   UNL     1       7.968   8.162   4.287  0.00  0.00    +0.000 HD
BRANCH   4   7
ATOM      7  C   UNL     1       5.975   8.187   3.588  0.00  0.00    +0.000 C 
ATOM      8  C   UNL     1       6.207   8.635   2.340  0.00  0.00    +0.000 C 
ATOM      9  H   UNL     1       4.947   7.951   3.861  0.00  0.00    +0.000 HD
BRANCH   8  10
ATOM     10  C   UNL     1       5.071   8.774   1.360  0.00  0.00    +0.000 C 
ATOM     11  H   UNL     1       5.386   8.438   0.366  0.00  0.00    +0.000 HD
ATOM     12  H   UNL     1       4.195   8.184   1.648  0.00  0.00    +0.000 HD
ATOM     13  H   UNL     1       4.758   9.821   1.290  0.00  0.00    +0.000 HD
ENDBRANCH   8  10
BRANCH   8  14
ATOM     14  C   UNL     1       7.550   9.016   1.788  0.00  0.00    +0.000 C 
ATOM     15  H   UNL     1       7.583   8.816   0.712  0.00  0.00    +0.000 HD
ATOM     16  H   UNL     1       7.803  10.069   1.923  0.00  0.00    +0.000 HD
ATOM     17  H   UNL     1       8.335   8.423   2.270  0.00  0.00    +0.000 HD
ENDBRANCH   8  14
ENDBRANCH   4   7
ENDBRANCH   1   4
BRANCH   1  18
ATOM     18  C   UNL     1       7.858   9.998   5.999  0.00  0.00    +0.000 C 
ATOM     19  C   UNL     1       8.884  10.146   5.139  0.00  0.00    +0.000 C 
ATOM     20  H   UNL     1       8.904   9.497   4.265  0.00  0.00    +0.000 HD
BRANCH  18  21
ATOM     21  C   UNL     1       7.768  10.874   7.223  0.00  0.00    +0.000 C 
ATOM     22  H   UNL     1       7.044  10.452   7.928  0.00  0.00    +0.000 HD
ATOM     23  H   UNL     1       7.433  11.879   6.954  0.00  0.00    +0.000 HD
ATOM     24  H   UNL     1       8.705  11.004   7.766  0.00  0.00    +0.000 HD
ENDBRANCH  18  21
BRANCH  19  25
ATOM     25  C   UNL     1      10.023  11.112   5.223  0.00  0.00    +0.000 C 
ATOM     26  H   UNL     1      10.960  10.544   5.172  0.00  0.00    +0.000 HD
ATOM     27  H   UNL     1      10.038  11.672   6.162  0.00  0.00    +0.000 HD
BRANCH  25  28
ATOM     28  O   UNL     1       9.951  11.994   4.111  0.00  0.00    +0.000 OA
BRANCH  28  30
ATOM     29  O   UNL     1      10.873  14.084   3.762  0.00  0.00    +0.000 OA
ATOM     30  C   UNL     1      10.151  13.319   4.387  0.00  0.00    +0.000 C 
BRANCH  30  31
ATOM     31  C   UNL     1       9.347  13.716   5.588  0.00  0.00    +0.000 C 
ATOM     32  H   UNL     1       8.320  13.361   5.481  0.00  0.00    +0.000 HD
ATOM     33  H   UNL     1       9.370  14.802   5.705  0.00  0.00    +0.000 HD
ATOM     34  H   UNL     1       9.781  13.259   6.483  0.00  0.00    +0.000 HD
ENDBRANCH  30  31
ENDBRANCH  28  30
ENDBRANCH  25  28
ENDBRANCH  19  25
ENDBRANCH   1  18
TORSDOF 10
ENDMDL
