MODEL 1
REMARK VINA RESULT:    -5.092      0.000      0.000
REMARK INTER + INTRA:          -7.154
REMARK INTER:                  -6.596
REMARK INTRA:                  -0.558
REMARK UNBOUND:                -0.276
REMARK  Name = 637566
REMARK  8 active torsions:
REMARK  status: ('A' for Active; 'I' for Inactive)
REMARK    1  A    between atoms: O_1  and  C_11
REMARK    2  A    between atoms: C_2  and  C_3
REMARK    3  A    between atoms: C_2  and  C_4
REMARK    4  A    between atoms: C_3  and  C_5
REMARK    5  A    between atoms: C_4  and  C_7
REMARK    6  A    between atoms: C_6  and  C_9
REMARK    7  A    between atoms: C_6  and  C_10
REMARK    8  A    between atoms: C_8  and  C_11
REMARK                            x       y       z     vdW  Elec       q    Type
REMARK                         _______ _______ _______ _____ _____    ______ ____
ROOT
ATOM      1  C   UNL     1       6.074   8.385   0.168  0.00  0.00    +0.000 C 
ATOM      2  H   UNL     1       6.092   7.308   0.383  0.00  0.00    +0.000 HD
ATOM      3  H   UNL     1       5.472   8.499  -0.743  0.00  0.00    +0.000 HD
ENDROOT
BRANCH   1   4
ATOM      4  C   UNL     1       5.385   9.132   1.318  0.00  0.00    +0.000 C 
ATOM      5  H   UNL     1       6.122   9.712   1.884  0.00  0.00    +0.000 HD
ATOM      6  H   UNL     1       4.963   8.416   2.035  0.00  0.00    +0.000 HD
BRANCH   4   7
ATOM      7  C   UNL     1       4.261  10.012   0.845  0.00  0.00    +0.000 C 
ATOM      8  C   UNL     1       4.337  11.263   0.352  0.00  0.00    +0.000 C 
ATOM      9  H   UNL     1       3.277   9.551   0.920  0.00  0.00    +0.000 HD
BRANCH   8  10
ATOM     10  C   UNL     1       3.088  11.994  -0.065  0.00  0.00    +0.000 C 
ATOM     11  H   UNL     1       3.083  13.006   0.353  0.00  0.00    +0.000 HD
ATOM     12  H   UNL     1       3.001  12.084  -1.153  0.00  0.00    +0.000 HD
ATOM     13  H   UNL     1       2.201  11.463   0.296  0.00  0.00    +0.000 HD
ENDBRANCH   8  10
BRANCH   8  14
ATOM     14  C   UNL     1       5.605  12.042   0.150  0.00  0.00    +0.000 C 
ATOM     15  H   UNL     1       5.500  13.050   0.566  0.00  0.00    +0.000 HD
ATOM     16  H   UNL     1       6.475  11.575   0.619  0.00  0.00    +0.000 HD
ATOM     17  H   UNL     1       5.826  12.132  -0.918  0.00  0.00    +0.000 HD
ENDBRANCH   8  14
ENDBRANCH   4   7
ENDBRANCH   1   4
BRANCH   1  18
ATOM     18  C   UNL     1       7.490   8.849  -0.099  0.00  0.00    +0.000 C 
ATOM     19  C   UNL     1       8.155   8.663  -1.256  0.00  0.00    +0.000 C 
ATOM     20  H   UNL     1       7.627   8.129  -2.045  0.00  0.00    +0.000 HD
BRANCH  18  21
ATOM     21  C   UNL     1       8.169   9.534   1.059  0.00  0.00    +0.000 C 
ATOM     22  H   UNL     1       8.688  10.435   0.713  0.00  0.00    +0.000 HD
ATOM     23  H   UNL     1       8.907   8.867   1.516  0.00  0.00    +0.000 HD
ATOM     24  H   UNL     1       7.478   9.864   1.838  0.00  0.00    +0.000 HD
ENDBRANCH  18  21
BRANCH  19  25
ATOM     25  C   UNL     1       9.559   9.061  -1.584  0.00  0.00    +0.000 C 
ATOM     26  H   UNL     1       9.974   9.703  -0.802  0.00  0.00    +0.000 HD
ATOM     27  H   UNL     1       9.635   9.569  -2.548  0.00  0.00    +0.000 HD
BRANCH  25  28
ATOM     28  O   UNL     1      10.355   7.887  -1.667  0.00  0.00    +0.000 OA
ATOM     29  H   UNL     1       9.903   7.262  -2.260  0.00  0.00    +0.000 HD
ENDBRANCH  25  28
ENDBRANCH  19  25
ENDBRANCH   1  18
TORSDOF 8
ENDMDL
MODEL 2
REMARK VINA RESULT:    -5.039      3.227      4.962
REMARK INTER + INTRA:          -7.083
REMARK INTER:                  -6.726
REMARK INTRA:                  -0.357
REMARK UNBOUND:                -0.276
REMARK  Name = 637566
REMARK  8 active torsions:
REMARK  status: ('A' for Active; 'I' for Inactive)
REMARK    1  A    between atoms: O_1  and  C_11
REMARK    2  A    between atoms: C_2  and  C_3
REMARK    3  A    between atoms: C_2  and  C_4
REMARK    4  A    between atoms: C_3  and  C_5
REMARK    5  A    between atoms: C_4  and  C_7
REMARK    6  A    between atoms: C_6  and  C_9
REMARK    7  A    between atoms: C_6  and  C_10
REMARK    8  A    between atoms: C_8  and  C_11
REMARK                            x       y       z     vdW  Elec       q    Type
REMARK                         _______ _______ _______ _____ _____    ______ ____
ROOT
ATOM      1  C   UNL     1       6.647   9.166  -0.372  0.00  0.00    +0.000 C 
ATOM      2  H   UNL     1       7.409   9.373  -1.135  0.00  0.00    +0.000 HD
ATOM      3  H   UNL     1       6.071   8.310  -0.747  0.00  0.00    +0.000 HD
ENDROOT
BRANCH   1   4
ATOM      4  C   UNL     1       7.326   8.772   0.946  0.00  0.00    +0.000 C 
ATOM      5  H   UNL     1       7.609   9.671   1.505  0.00  0.00    +0.000 HD
ATOM      6  H   UNL     1       8.266   8.244   0.744  0.00  0.00    +0.000 HD
BRANCH   4   7
ATOM      7  C   UNL     1       6.471   7.866   1.789  0.00  0.00    +0.000 C 
ATOM      8  C   UNL     1       6.438   7.765   3.131  0.00  0.00    +0.000 C 
ATOM      9  H   UNL     1       5.804   7.226   1.212  0.00  0.00    +0.000 HD
BRANCH   8  10
ATOM     10  C   UNL     1       5.513   6.784   3.798  0.00  0.00    +0.000 C 
ATOM     11  H   UNL     1       5.162   6.040   3.075  0.00  0.00    +0.000 HD
ATOM     12  H   UNL     1       5.998   6.244   4.619  0.00  0.00    +0.000 HD
ATOM     13  H   UNL     1       4.643   7.304   4.211  0.00  0.00    +0.000 HD
ENDBRANCH   8  10
BRANCH   8  14
ATOM     14  C   UNL     1       7.262   8.584   4.084  0.00  0.00    +0.000 C 
ATOM     15  H   UNL     1       6.986   8.351   5.118  0.00  0.00    +0.000 HD
ATOM     16  H   UNL     1       8.336   8.416   3.977  0.00  0.00    +0.000 HD
ATOM     17  H   UNL     1       7.086   9.652   3.913  0.00  0.00    +0.000 HD
ENDBRANCH   8  14
ENDBRANCH   4   7
ENDBRANCH   1   4
BRANCH   1  18
ATOM     18  C   UNL     1       5.741  10.374  -0.255  0.00  0.00    +0.000 C 
ATOM     19  C   UNL     1       4.395  10.332  -0.287  0.00  0.00    +0.000 C 
ATOM     20  H   UNL     1       3.937   9.352  -0.417  0.00  0.00    +0.000 HD
BRANCH  18  21
ATOM     21  C   UNL     1       6.451  11.698  -0.129  0.00  0.00    +0.000 C 
ATOM     22  H   UNL     1       5.991  12.298   0.663  0.00  0.00    +0.000 HD
ATOM     23  H   UNL     1       6.382  12.257  -1.068  0.00  0.00    +0.000 HD
ATOM     24  H   UNL     1       7.507  11.604   0.136  0.00  0.00    +0.000 HD
ENDBRANCH  18  21
BRANCH  19  25
ATOM     25  C   UNL     1       3.437  11.478  -0.210  0.00  0.00    +0.000 C 
ATOM     26  H   UNL     1       2.520  11.257  -0.764  0.00  0.00    +0.000 HD
ATOM     27  H   UNL     1       3.869  12.410  -0.582  0.00  0.00    +0.000 HD
BRANCH  25  28
ATOM     28  O   UNL     1       3.095  11.691   1.153  0.00  0.00    +0.000 OA
ATOM     29  H   UNL     1       2.481  12.445   1.191  0.00  0.00    +0.000 HD
ENDBRANCH  25  28
ENDBRANCH  19  25
ENDBRANCH   1  18
TORSDOF 8
ENDMDL
MODEL 3
REMARK VINA RESULT:    -4.796     14.843     15.806
REMARK INTER + INTRA:          -6.754
REMARK INTER:                  -6.459
REMARK INTRA:                  -0.295
REMARK UNBOUND:                -0.276
REMARK  Name = 637566
REMARK  8 active torsions:
REMARK  status: ('A' for Active; 'I' for Inactive)
REMARK    1  A    between atoms: O_1  and  C_11
REMARK    2  A    between atoms: C_2  and  C_3
REMARK    3  A    between atoms: C_2  and  C_4
REMARK    4  A    between atoms: C_3  and  C_5
REMARK    5  A    between atoms: C_4  and  C_7
REMARK    6  A    between atoms: C_6  and  C_9
REMARK    7  A    between atoms: C_6  and  C_10
REMARK    8  A    between atoms: C_8  and  C_11
REMARK                            x       y       z     vdW  Elec       q    Type
REMARK                         _______ _______ _______ _____ _____    ______ ____
ROOT
ATOM      1  C   UNL     1      -1.268   8.293 -12.891  0.00  0.00    +0.000 C 
ATOM      2  H   UNL     1      -2.127   8.952 -12.704  0.00  0.00    +0.000 HD
ATOM      3  H   UNL     1      -0.457   8.668 -12.252  0.00  0.00    +0.000 HD
ENDROOT
BRANCH   1   4
ATOM      4  C   UNL     1      -1.614   6.859 -12.467  0.00  0.00    +0.000 C 
ATOM      5  H   UNL     1      -0.766   6.194 -12.667  0.00  0.00    +0.000 HD
ATOM      6  H   UNL     1      -2.439   6.473 -13.079  0.00  0.00    +0.000 HD
BRANCH   4   7
ATOM      7  C   UNL     1      -2.038   6.767 -11.028  0.00  0.00    +0.000 C 
ATOM      8  C   UNL     1      -3.286   6.809 -10.524  0.00  0.00    +0.000 C 
ATOM      9  H   UNL     1      -1.209   6.650 -10.330  0.00  0.00    +0.000 HD
BRANCH   8  10
ATOM     10  C   UNL     1      -3.511   6.710  -9.039  0.00  0.00    +0.000 C 
ATOM     11  H   UNL     1      -2.830   5.973  -8.600  0.00  0.00    +0.000 HD
ATOM     12  H   UNL     1      -3.344   7.663  -8.526  0.00  0.00    +0.000 HD
ATOM     13  H   UNL     1      -4.540   6.398  -8.833  0.00  0.00    +0.000 HD
ENDBRANCH   8  10
BRANCH   8  14
ATOM     14  C   UNL     1      -4.546   6.937 -11.333  0.00  0.00    +0.000 C 
ATOM     15  H   UNL     1      -4.718   6.022 -11.910  0.00  0.00    +0.000 HD
ATOM     16  H   UNL     1      -5.432   7.118 -10.720  0.00  0.00    +0.000 HD
ATOM     17  H   UNL     1      -4.462   7.775 -12.032  0.00  0.00    +0.000 HD
ENDBRANCH   8  14
ENDBRANCH   4   7
ENDBRANCH   1   4
BRANCH   1  18
ATOM     18  C   UNL     1      -0.868   8.420 -14.345  0.00  0.00    +0.000 C 
ATOM     19  C   UNL     1       0.234   9.058 -14.787  0.00  0.00    +0.000 C 
ATOM     20  H   UNL     1       0.869   9.520 -14.032  0.00  0.00    +0.000 HD
BRANCH  18  21
ATOM     21  C   UNL     1      -1.825   7.798 -15.330  0.00  0.00    +0.000 C 
ATOM     22  H   UNL     1      -1.935   6.728 -15.123  0.00  0.00    +0.000 HD
ATOM     23  H   UNL     1      -1.448   7.913 -16.351  0.00  0.00    +0.000 HD
ATOM     24  H   UNL     1      -2.832   8.220 -15.288  0.00  0.00    +0.000 HD
ENDBRANCH  18  21
BRANCH  19  25
ATOM     25  C   UNL     1       0.678   9.253 -16.202  0.00  0.00    +0.000 C 
ATOM     26  H   UNL     1       1.132  10.239 -16.335  0.00  0.00    +0.000 HD
ATOM     27  H   UNL     1      -0.139   9.130 -16.917  0.00  0.00    +0.000 HD
BRANCH  25  28
ATOM     28  O   UNL     1       1.654   8.266 -16.510  0.00  0.00    +0.000 OA
ATOM     29  H   UNL     1       1.487   7.956 -17.417  0.00  0.00    +0.000 HD
ENDBRANCH  25  28
ENDBRANCH  19  25
ENDBRANCH   1  18
TORSDOF 8
ENDMDL
MODEL 4
REMARK VINA RESULT:    -4.769     13.751     14.858
REMARK INTER + INTRA:          -6.718
REMARK INTER:                  -6.243
REMARK INTRA:                  -0.474
REMARK UNBOUND:                -0.276
REMARK  Name = 637566
REMARK  8 active torsions:
REMARK  status: ('A' for Active; 'I' for Inactive)
REMARK    1  A    between atoms: O_1  and  C_11
REMARK    2  A    between atoms: C_2  and  C_3
REMARK    3  A    between atoms: C_2  and  C_4
REMARK    4  A    between atoms: C_3  and  C_5
REMARK    5  A    between atoms: C_4  and  C_7
REMARK    6  A    between atoms: C_6  and  C_9
REMARK    7  A    between atoms: C_6  and  C_10
REMARK    8  A    between atoms: C_8  and  C_11
REMARK                            x       y       z     vdW  Elec       q    Type
REMARK                         _______ _______ _______ _____ _____    ______ ____
ROOT
ATOM      1  C   UNL     1      -0.941   9.627 -11.273  0.00  0.00    +0.000 C 
ATOM      2  H   UNL     1      -0.232  10.386 -10.915  0.00  0.00    +0.000 HD
ATOM      3  H   UNL     1      -0.532   8.660 -10.952  0.00  0.00    +0.000 HD
ENDROOT
BRANCH   1   4
ATOM      4  C   UNL     1      -2.306   9.838 -10.606  0.00  0.00    +0.000 C 
ATOM      5  H   UNL     1      -3.084   9.947 -11.370  0.00  0.00    +0.000 HD
ATOM      6  H   UNL     1      -2.313  10.781 -10.045  0.00  0.00    +0.000 HD
BRANCH   4   7
ATOM      7  C   UNL     1      -2.655   8.737  -9.642  0.00  0.00    +0.000 C 
ATOM      8  C   UNL     1      -3.107   7.500  -9.921  0.00  0.00    +0.000 C 
ATOM      9  H   UNL     1      -2.510   9.004  -8.595  0.00  0.00    +0.000 HD
BRANCH   8  10
ATOM     10  C   UNL     1      -3.412   6.532  -8.809  0.00  0.00    +0.000 C 
ATOM     11  H   UNL     1      -3.970   5.673  -9.196  0.00  0.00    +0.000 HD
ATOM     12  H   UNL     1      -2.505   6.149  -8.329  0.00  0.00    +0.000 HD
ATOM     13  H   UNL     1      -4.015   7.020  -8.038  0.00  0.00    +0.000 HD
ENDBRANCH   8  10
BRANCH   8  14
ATOM     14  C   UNL     1      -3.338   6.950 -11.300  0.00  0.00    +0.000 C 
ATOM     15  H   UNL     1      -4.024   7.598 -11.855  0.00  0.00    +0.000 HD
ATOM     16  H   UNL     1      -2.419   6.857 -11.884  0.00  0.00    +0.000 HD
ATOM     17  H   UNL     1      -3.781   5.951 -11.238  0.00  0.00    +0.000 HD
ENDBRANCH   8  14
ENDBRANCH   4   7
ENDBRANCH   1   4
BRANCH   1  18
ATOM     18  C   UNL     1      -0.984   9.682 -12.785  0.00  0.00    +0.000 C 
ATOM     19  C   UNL     1       0.086   9.546 -13.591  0.00  0.00    +0.000 C 
ATOM     20  H   UNL     1       1.050   9.396 -13.106  0.00  0.00    +0.000 HD
BRANCH  18  21
ATOM     21  C   UNL     1      -2.346   9.944 -13.377  0.00  0.00    +0.000 C 
ATOM     22  H   UNL     1      -2.909  10.633 -12.738  0.00  0.00    +0.000 HD
ATOM     23  H   UNL     1      -2.912   9.010 -13.457  0.00  0.00    +0.000 HD
ATOM     24  H   UNL     1      -2.311  10.408 -14.366  0.00  0.00    +0.000 HD
ENDBRANCH  18  21
BRANCH  19  25
ATOM     25  C   UNL     1       0.128   9.619 -15.084  0.00  0.00    +0.000 C 
ATOM     26  H   UNL     1       0.582  10.557 -15.416  0.00  0.00    +0.000 HD
ATOM     27  H   UNL     1      -0.862   9.516 -15.536  0.00  0.00    +0.000 HD
BRANCH  25  28
ATOM     28  O   UNL     1       0.921   8.543 -15.569  0.00  0.00    +0.000 OA
ATOM     29  H   UNL     1       1.112   7.953 -14.819  0.00  0.00    +0.000 HD
ENDBRANCH  25  28
ENDBRANCH  19  25
ENDBRANCH   1  18
TORSDOF 8
ENDMDL
MODEL 5
REMARK VINA RESULT:    -4.725     13.957     15.616
REMARK INTER + INTRA:          -6.658
REMARK INTER:                  -6.295
REMARK INTRA:                  -0.363
REMARK UNBOUND:                -0.276
REMARK  Name = 637566
REMARK  8 active torsions:
REMARK  status: ('A' for Active; 'I' for Inactive)
REMARK    1  A    between atoms: O_1  and  C_11
REMARK    2  A    between atoms: C_2  and  C_3
REMARK    3  A    between atoms: C_2  and  C_4
REMARK    4  A    between atoms: C_3  and  C_5
REMARK    5  A    between atoms: C_4  and  C_7
REMARK    6  A    between atoms: C_6  and  C_9
REMARK    7  A    between atoms: C_6  and  C_10
REMARK    8  A    between atoms: C_8  and  C_11
REMARK                            x       y       z     vdW  Elec       q    Type
REMARK                         _______ _______ _______ _____ _____    ______ ____
ROOT
ATOM      1  C   UNL     1      -4.490   6.885 -11.159  0.00  0.00    +0.000 C 
ATOM      2  H   UNL     1      -4.719   7.942 -11.348  0.00  0.00    +0.000 HD
ATOM      3  H   UNL     1      -4.414   6.413 -12.148  0.00  0.00    +0.000 HD
ENDROOT
BRANCH   1   4
ATOM      4  C   UNL     1      -3.137   6.767 -10.445  0.00  0.00    +0.000 C 
ATOM      5  H   UNL     1      -2.677   5.799 -10.672  0.00  0.00    +0.000 HD
ATOM      6  H   UNL     1      -3.281   6.775  -9.357  0.00  0.00    +0.000 HD
BRANCH   4   7
ATOM      7  C   UNL     1      -2.203   7.895 -10.785  0.00  0.00    +0.000 C 
ATOM      8  C   UNL     1      -2.080   9.087 -10.171  0.00  0.00    +0.000 C 
ATOM      9  H   UNL     1      -1.556   7.691 -11.638  0.00  0.00    +0.000 HD
BRANCH   8  10
ATOM     10  C   UNL     1      -1.085  10.101 -10.668  0.00  0.00    +0.000 C 
ATOM     11  H   UNL     1      -0.438  10.432  -9.849  0.00  0.00    +0.000 HD
ATOM     12  H   UNL     1      -0.439   9.700 -11.458  0.00  0.00    +0.000 HD
ATOM     13  H   UNL     1      -1.605  10.973 -11.076  0.00  0.00    +0.000 HD
ENDBRANCH   8  10
BRANCH   8  14
ATOM     14  C   UNL     1      -2.864   9.529  -8.968  0.00  0.00    +0.000 C 
ATOM     15  H   UNL     1      -2.669   8.860  -8.124  0.00  0.00    +0.000 HD
ATOM     16  H   UNL     1      -2.625  10.547  -8.651  0.00  0.00    +0.000 HD
ATOM     17  H   UNL     1      -3.937   9.505  -9.187  0.00  0.00    +0.000 HD
ENDBRANCH   8  14
ENDBRANCH   4   7
ENDBRANCH   1   4
BRANCH   1  18
ATOM     18  C   UNL     1      -5.641   6.271 -10.391  0.00  0.00    +0.000 C 
ATOM     19  C   UNL     1      -5.629   6.001  -9.071  0.00  0.00    +0.000 C 
ATOM     20  H   UNL     1      -4.713   6.237  -8.531  0.00  0.00    +0.000 HD
BRANCH  18  21
ATOM     21  C   UNL     1      -6.853   5.927 -11.220  0.00  0.00    +0.000 C 
ATOM     22  H   UNL     1      -6.825   4.869 -11.505  0.00  0.00    +0.000 HD
ATOM     23  H   UNL     1      -6.872   6.529 -12.133  0.00  0.00    +0.000 HD
ATOM     24  H   UNL     1      -7.799   6.073 -10.693  0.00  0.00    +0.000 HD
ENDBRANCH  18  21
BRANCH  19  25
ATOM     25  C   UNL     1      -6.709   5.369  -8.252  0.00  0.00    +0.000 C 
ATOM     26  H   UNL     1      -6.371   4.419  -7.829  0.00  0.00    +0.000 HD
ATOM     27  H   UNL     1      -7.626   5.207  -8.822  0.00  0.00    +0.000 HD
BRANCH  25  28
ATOM     28  O   UNL     1      -7.034   6.244  -7.180  0.00  0.00    +0.000 OA
ATOM     29  H   UNL     1      -6.419   6.061  -6.449  0.00  0.00    +0.000 HD
ENDBRANCH  25  28
ENDBRANCH  19  25
ENDBRANCH   1  18
TORSDOF 8
ENDMDL
MODEL 6
REMARK VINA RESULT:    -4.675     14.556     16.460
REMARK INTER + INTRA:          -6.591
REMARK INTER:                  -6.246
REMARK INTRA:                  -0.345
REMARK UNBOUND:                -0.276
REMARK  Name = 637566
REMARK  8 active torsions:
REMARK  status: ('A' for Active; 'I' for Inactive)
REMARK    1  A    between atoms: O_1  and  C_11
REMARK    2  A    between atoms: C_2  and  C_3
REMARK    3  A    between atoms: C_2  and  C_4
REMARK    4  A    between atoms: C_3  and  C_5
REMARK    5  A    between atoms: C_4  and  C_7
REMARK    6  A    between atoms: C_6  and  C_9
REMARK    7  A    between atoms: C_6  and  C_10
REMARK    8  A    between atoms: C_8  and  C_11
REMARK                            x       y       z     vdW  Elec       q    Type
REMARK                         _______ _______ _______ _____ _____    ______ ____
ROOT
ATOM      1  C   UNL     1      -7.813   6.035  -8.862  0.00  0.00    +0.000 C 
ATOM      2  H   UNL     1      -7.799   7.132  -8.893  0.00  0.00    +0.000 HD
ATOM      3  H   UNL     1      -8.661   5.728  -9.489  0.00  0.00    +0.000 HD
ENDROOT
BRANCH   1   4
ATOM      4  C   UNL     1      -6.517   5.482  -9.469  0.00  0.00    +0.000 C 
ATOM      5  H   UNL     1      -6.557   5.548 -10.562  0.00  0.00    +0.000 HD
ATOM      6  H   UNL     1      -6.419   4.413  -9.244  0.00  0.00    +0.000 HD
BRANCH   4   7
ATOM      7  C   UNL     1      -5.290   6.170  -8.937  0.00  0.00    +0.000 C 
ATOM      8  C   UNL     1      -4.296   6.752  -9.633  0.00  0.00    +0.000 C 
ATOM      9  H   UNL     1      -5.229   6.185  -7.849  0.00  0.00    +0.000 HD
BRANCH   8  10
ATOM     10  C   UNL     1      -3.135   7.388  -8.916  0.00  0.00    +0.000 C 
ATOM     11  H   UNL     1      -3.488   7.951  -8.045  0.00  0.00    +0.000 HD
ATOM     12  H   UNL     1      -2.409   6.649  -8.560  0.00  0.00    +0.000 HD
ATOM     13  H   UNL     1      -2.608   8.076  -9.584  0.00  0.00    +0.000 HD
ENDBRANCH   8  10
BRANCH   8  14
ATOM     14  C   UNL     1      -4.226   6.853 -11.130  0.00  0.00    +0.000 C 
ATOM     15  H   UNL     1      -4.194   5.853 -11.575  0.00  0.00    +0.000 HD
ATOM     16  H   UNL     1      -5.077   7.385 -11.564  0.00  0.00    +0.000 HD
ATOM     17  H   UNL     1      -3.323   7.393 -11.431  0.00  0.00    +0.000 HD
ENDBRANCH   8  14
ENDBRANCH   4   7
ENDBRANCH   1   4
BRANCH   1  18
ATOM     18  C   UNL     1      -8.055   5.594  -7.433  0.00  0.00    +0.000 C 
ATOM     19  C   UNL     1      -8.393   6.417  -6.421  0.00  0.00    +0.000 C 
ATOM     20  H   UNL     1      -8.486   7.476  -6.660  0.00  0.00    +0.000 HD
BRANCH  18  21
ATOM     21  C   UNL     1      -7.857   4.123  -7.175  0.00  0.00    +0.000 C 
ATOM     22  H   UNL     1      -7.967   3.910  -6.105  0.00  0.00    +0.000 HD
ATOM     23  H   UNL     1      -6.853   3.814  -7.484  0.00  0.00    +0.000 HD
ATOM     24  H   UNL     1      -8.583   3.487  -7.686  0.00  0.00    +0.000 HD
ENDBRANCH  18  21
BRANCH  19  25
ATOM     25  C   UNL     1      -8.617   6.064  -4.986  0.00  0.00    +0.000 C 
ATOM     26  H   UNL     1      -8.704   4.981  -4.859  0.00  0.00    +0.000 HD
ATOM     27  H   UNL     1      -9.502   6.550  -4.568  0.00  0.00    +0.000 HD
BRANCH  25  28
ATOM     28  O   UNL     1      -7.500   6.513  -4.230  0.00  0.00    +0.000 OA
ATOM     29  H   UNL     1      -7.071   5.731  -3.840  0.00  0.00    +0.000 HD
ENDBRANCH  25  28
ENDBRANCH  19  25
ENDBRANCH   1  18
TORSDOF 8
ENDMDL
MODEL 7
REMARK VINA RESULT:    -4.659     28.994     30.483
REMARK INTER + INTRA:          -6.569
REMARK INTER:                  -6.059
REMARK INTRA:                  -0.510
REMARK UNBOUND:                -0.276
REMARK  Name = 637566
REMARK  8 active torsions:
REMARK  status: ('A' for Active; 'I' for Inactive)
REMARK    1  A    between atoms: O_1  and  C_11
REMARK    2  A    between atoms: C_2  and  C_3
REMARK    3  A    between atoms: C_2  and  C_4
REMARK    4  A    between atoms: C_3  and  C_5
REMARK    5  A    between atoms: C_4  and  C_7
REMARK    6  A    between atoms: C_6  and  C_9
REMARK    7  A    between atoms: C_6  and  C_10
REMARK    8  A    between atoms: C_8  and  C_11
REMARK                            x       y       z     vdW  Elec       q    Type
REMARK                         _______ _______ _______ _____ _____    ______ ____
ROOT
ATOM      1  C   UNL     1     -21.190  -2.115   3.781  0.00  0.00    +0.000 C 
ATOM      2  H   UNL     1     -20.367  -1.569   3.299  0.00  0.00    +0.000 HD
ATOM      3  H   UNL     1     -22.111  -1.602   3.475  0.00  0.00    +0.000 HD
ENDROOT
BRANCH   1   4
ATOM      4  C   UNL     1     -21.227  -3.559   3.263  0.00  0.00    +0.000 C 
ATOM      5  H   UNL     1     -22.081  -3.694   2.590  0.00  0.00    +0.000 HD
ATOM      6  H   UNL     1     -21.396  -4.255   4.094  0.00  0.00    +0.000 HD
BRANCH   4   7
ATOM      7  C   UNL     1     -19.946  -3.965   2.588  0.00  0.00    +0.000 C 
ATOM      8  C   UNL     1     -18.962  -4.745   3.072  0.00  0.00    +0.000 C 
ATOM      9  H   UNL     1     -19.831  -3.564   1.581  0.00  0.00    +0.000 HD
BRANCH   8  10
ATOM     10  C   UNL     1     -17.740  -5.034   2.242  0.00  0.00    +0.000 C 
ATOM     11  H   UNL     1     -17.154  -5.840   2.695  0.00  0.00    +0.000 HD
ATOM     12  H   UNL     1     -17.993  -5.341   1.221  0.00  0.00    +0.000 HD
ATOM     13  H   UNL     1     -17.110  -4.141   2.173  0.00  0.00    +0.000 HD
ENDBRANCH   8  10
BRANCH   8  14
ATOM     14  C   UNL     1     -18.962  -5.406   4.422  0.00  0.00    +0.000 C 
ATOM     15  H   UNL     1     -19.822  -5.067   5.008  0.00  0.00    +0.000 HD
ATOM     16  H   UNL     1     -19.003  -6.496   4.365  0.00  0.00    +0.000 HD
ATOM     17  H   UNL     1     -18.049  -5.146   4.968  0.00  0.00    +0.000 HD
ENDBRANCH   8  14
ENDBRANCH   4   7
ENDBRANCH   1   4
BRANCH   1  18
ATOM     18  C   UNL     1     -21.026  -2.009   5.283  0.00  0.00    +0.000 C 
ATOM     19  C   UNL     1     -20.608  -0.907   5.935  0.00  0.00    +0.000 C 
ATOM     20  H   UNL     1     -20.363  -0.039   5.325  0.00  0.00    +0.000 HD
BRANCH  18  21
ATOM     21  C   UNL     1     -21.335  -3.269   6.051  0.00  0.00    +0.000 C 
ATOM     22  H   UNL     1     -21.237  -3.087   7.127  0.00  0.00    +0.000 HD
ATOM     23  H   UNL     1     -20.638  -4.065   5.772  0.00  0.00    +0.000 HD
ATOM     24  H   UNL     1     -22.353  -3.636   5.897  0.00  0.00    +0.000 HD
ENDBRANCH  18  21
BRANCH  19  25
ATOM     25  C   UNL     1     -20.392  -0.736   7.405  0.00  0.00    +0.000 C 
ATOM     26  H   UNL     1     -19.505  -0.126   7.599  0.00  0.00    +0.000 HD
ATOM     27  H   UNL     1     -20.297  -1.690   7.928  0.00  0.00    +0.000 HD
BRANCH  25  28
ATOM     28  O   UNL     1     -21.521  -0.069   7.954  0.00  0.00    +0.000 OA
ATOM     29  H   UNL     1     -21.275   0.860   8.101  0.00  0.00    +0.000 HD
ENDBRANCH  25  28
ENDBRANCH  19  25
ENDBRANCH   1  18
TORSDOF 8
ENDMDL
MODEL 8
REMARK VINA RESULT:    -4.566     15.341     16.551
REMARK INTER + INTRA:          -6.443
REMARK INTER:                  -5.901
REMARK INTRA:                  -0.542
REMARK UNBOUND:                -0.276
REMARK  Name = 637566
REMARK  8 active torsions:
REMARK  status: ('A' for Active; 'I' for Inactive)
REMARK    1  A    between atoms: O_1  and  C_11
REMARK    2  A    between atoms: C_2  and  C_3
REMARK    3  A    between atoms: C_2  and  C_4
REMARK    4  A    between atoms: C_3  and  C_5
REMARK    5  A    between atoms: C_4  and  C_7
REMARK    6  A    between atoms: C_6  and  C_9
REMARK    7  A    between atoms: C_6  and  C_10
REMARK    8  A    between atoms: C_8  and  C_11
REMARK                            x       y       z     vdW  Elec       q    Type
REMARK                         _______ _______ _______ _____ _____    ______ ____
ROOT
ATOM      1  C   UNL     1      -8.973  11.262   5.509  0.00  0.00    +0.000 C 
ATOM      2  H   UNL     1      -9.514  12.213   5.407  0.00  0.00    +0.000 HD
ATOM      3  H   UNL     1      -9.516  10.539   4.885  0.00  0.00    +0.000 HD
ENDROOT
BRANCH   1   4
ATOM      4  C   UNL     1      -7.546  11.416   4.967  0.00  0.00    +0.000 C 
ATOM      5  H   UNL     1      -7.432  10.840   4.042  0.00  0.00    +0.000 HD
ATOM      6  H   UNL     1      -6.825  10.984   5.672  0.00  0.00    +0.000 HD
BRANCH   4   7
ATOM      7  C   UNL     1      -7.162  12.854   4.751  0.00  0.00    +0.000 C 
ATOM      8  C   UNL     1      -6.734  13.746   5.664  0.00  0.00    +0.000 C 
ATOM      9  H   UNL     1      -7.247  13.184   3.716  0.00  0.00    +0.000 HD
BRANCH   8  10
ATOM     10  C   UNL     1      -6.402  15.156   5.254  0.00  0.00    +0.000 C 
ATOM     11  H   UNL     1      -5.527  15.516   5.805  0.00  0.00    +0.000 HD
ATOM     12  H   UNL     1      -6.177  15.237   4.185  0.00  0.00    +0.000 HD
ATOM     13  H   UNL     1      -7.246  15.820   5.467  0.00  0.00    +0.000 HD
ENDBRANCH   8  10
BRANCH   8  14
ATOM     14  C   UNL     1      -6.528  13.463   7.125  0.00  0.00    +0.000 C 
ATOM     15  H   UNL     1      -6.324  12.398   7.279  0.00  0.00    +0.000 HD
ATOM     16  H   UNL     1      -5.700  14.028   7.559  0.00  0.00    +0.000 HD
ATOM     17  H   UNL     1      -7.428  13.726   7.691  0.00  0.00    +0.000 HD
ENDBRANCH   8  14
ENDBRANCH   4   7
ENDBRANCH   1   4
BRANCH   1  18
ATOM     18  C   UNL     1      -9.033  10.825   6.958  0.00  0.00    +0.000 C 
ATOM     19  C   UNL     1      -8.465   9.706   7.448  0.00  0.00    +0.000 C 
ATOM     20  H   UNL     1      -7.936   9.073   6.737  0.00  0.00    +0.000 HD
BRANCH  18  21
ATOM     21  C   UNL     1      -9.826  11.729   7.867  0.00  0.00    +0.000 C 
ATOM     22  H   UNL     1     -10.878  11.742   7.560  0.00  0.00    +0.000 HD
ATOM     23  H   UNL     1      -9.441  12.752   7.816  0.00  0.00    +0.000 HD
ATOM     24  H   UNL     1      -9.819  11.412   8.912  0.00  0.00    +0.000 HD
ENDBRANCH  18  21
BRANCH  19  25
ATOM     25  C   UNL     1      -8.506   9.193   8.852  0.00  0.00    +0.000 C 
ATOM     26  H   UNL     1      -9.521   8.895   9.128  0.00  0.00    +0.000 HD
ATOM     27  H   UNL     1      -8.133   9.923   9.575  0.00  0.00    +0.000 HD
BRANCH  25  28
ATOM     28  O   UNL     1      -7.664   8.051   8.942  0.00  0.00    +0.000 OA
ATOM     29  H   UNL     1      -7.470   7.753   8.036  0.00  0.00    +0.000 HD
ENDBRANCH  25  28
ENDBRANCH  19  25
ENDBRANCH   1  18
TORSDOF 8
ENDMDL
MODEL 9
REMARK VINA RESULT:    -4.432     16.864     17.977
REMARK INTER + INTRA:          -6.263
REMARK INTER:                  -5.975
REMARK INTRA:                  -0.289
REMARK UNBOUND:                -0.276
REMARK  Name = 637566
REMARK  8 active torsions:
REMARK  status: ('A' for Active; 'I' for Inactive)
REMARK    1  A    between atoms: O_1  and  C_11
REMARK    2  A    between atoms: C_2  and  C_3
REMARK    3  A    between atoms: C_2  and  C_4
REMARK    4  A    between atoms: C_3  and  C_5
REMARK    5  A    between atoms: C_4  and  C_7
REMARK    6  A    between atoms: C_6  and  C_9
REMARK    7  A    between atoms: C_6  and  C_10
REMARK    8  A    between atoms: C_8  and  C_11
REMARK                            x       y       z     vdW  Elec       q    Type
REMARK                         _______ _______ _______ _____ _____    ______ ____
ROOT
ATOM      1  C   UNL     1      -0.455  -0.082 -13.125  0.00  0.00    +0.000 C 
ATOM      2  H   UNL     1      -0.784   0.492 -14.001  0.00  0.00    +0.000 HD
ATOM      3  H   UNL     1      -0.121  -1.055 -13.512  0.00  0.00    +0.000 HD
ENDROOT
BRANCH   1   4
ATOM      4  C   UNL     1       0.734   0.624 -12.460  0.00  0.00    +0.000 C 
ATOM      5  H   UNL     1       0.598   0.642 -11.373  0.00  0.00    +0.000 HD
ATOM      6  H   UNL     1       0.770   1.676 -12.768  0.00  0.00    +0.000 HD
BRANCH   4   7
ATOM      7  C   UNL     1       2.054   0.001 -12.822  0.00  0.00    +0.000 C 
ATOM      8  C   UNL     1       2.798   0.213 -13.923  0.00  0.00    +0.000 C 
ATOM      9  H   UNL     1       2.429  -0.703 -12.080  0.00  0.00    +0.000 HD
BRANCH   8  10
ATOM     10  C   UNL     1       4.100  -0.518 -14.115  0.00  0.00    +0.000 C 
ATOM     11  H   UNL     1       4.785   0.079 -14.727  0.00  0.00    +0.000 HD
ATOM     12  H   UNL     1       4.604  -0.729 -13.165  0.00  0.00    +0.000 HD
ATOM     13  H   UNL     1       3.927  -1.474 -14.618  0.00  0.00    +0.000 HD
ENDBRANCH   8  10
BRANCH   8  14
ATOM     14  C   UNL     1       2.456   1.166 -15.034  0.00  0.00    +0.000 C 
ATOM     15  H   UNL     1       1.866   2.003 -14.645  0.00  0.00    +0.000 HD
ATOM     16  H   UNL     1       3.336   1.579 -15.532  0.00  0.00    +0.000 HD
ATOM     17  H   UNL     1       1.864   0.654 -15.800  0.00  0.00    +0.000 HD
ENDBRANCH   8  14
ENDBRANCH   4   7
ENDBRANCH   1   4
BRANCH   1  18
ATOM     18  C   UNL     1      -1.640  -0.282 -12.205  0.00  0.00    +0.000 C 
ATOM     19  C   UNL     1      -1.560  -0.427 -10.868  0.00  0.00    +0.000 C 
ATOM     20  H   UNL     1      -0.563  -0.407 -10.431  0.00  0.00    +0.000 HD
BRANCH  18  21
ATOM     21  C   UNL     1      -2.980  -0.349 -12.892  0.00  0.00    +0.000 C 
ATOM     22  H   UNL     1      -3.752  -0.668 -12.182  0.00  0.00    +0.000 HD
ATOM     23  H   UNL     1      -2.951  -1.072 -13.713  0.00  0.00    +0.000 HD
ATOM     24  H   UNL     1      -3.315   0.611 -13.292  0.00  0.00    +0.000 HD
ENDBRANCH  18  21
BRANCH  19  25
ATOM     25  C   UNL     1      -2.676  -0.658  -9.900  0.00  0.00    +0.000 C 
ATOM     26  H   UNL     1      -3.634  -0.347 -10.327  0.00  0.00    +0.000 HD
ATOM     27  H   UNL     1      -2.519  -0.143  -8.949  0.00  0.00    +0.000 HD
BRANCH  25  28
ATOM     28  O   UNL     1      -2.746  -2.049  -9.613  0.00  0.00    +0.000 OA
ATOM     29  H   UNL     1      -1.835  -2.385  -9.547  0.00  0.00    +0.000 HD
ENDBRANCH  25  28
ENDBRANCH  19  25
ENDBRANCH   1  18
TORSDOF 8
ENDMDL
MODEL 10
REMARK VINA RESULT:    -4.363     14.924     16.510
REMARK INTER + INTRA:          -6.169
REMARK INTER:                  -5.893
REMARK INTRA:                  -0.276
REMARK UNBOUND:                -0.276
REMARK  Name = 637566
REMARK  8 active torsions:
REMARK  status: ('A' for Active; 'I' for Inactive)
REMARK    1  A    between atoms: O_1  and  C_11
REMARK    2  A    between atoms: C_2  and  C_3
REMARK    3  A    between atoms: C_2  and  C_4
REMARK    4  A    between atoms: C_3  and  C_5
REMARK    5  A    between atoms: C_4  and  C_7
REMARK    6  A    between atoms: C_6  and  C_9
REMARK    7  A    between atoms: C_6  and  C_10
REMARK    8  A    between atoms: C_8  and  C_11
REMARK                            x       y       z     vdW  Elec       q    Type
REMARK                         _______ _______ _______ _____ _____    ______ ____
ROOT
ATOM      1  C   UNL     1      -9.058  10.730   7.014  0.00  0.00    +0.000 C 
ATOM      2  H   UNL     1      -9.408  11.706   7.374  0.00  0.00    +0.000 HD
ATOM      3  H   UNL     1      -9.961  10.167   6.743  0.00  0.00    +0.000 HD
ENDROOT
BRANCH   1   4
ATOM      4  C   UNL     1      -8.195  10.920   5.759  0.00  0.00    +0.000 C 
ATOM      5  H   UNL     1      -8.269  10.036   5.116  0.00  0.00    +0.000 HD
ATOM      6  H   UNL     1      -7.136  10.992   6.036  0.00  0.00    +0.000 HD
BRANCH   4   7
ATOM      7  C   UNL     1      -8.549  12.167   4.997  0.00  0.00    +0.000 C 
ATOM      8  C   UNL     1      -7.788  13.257   4.786  0.00  0.00    +0.000 C 
ATOM      9  H   UNL     1      -9.552  12.154   4.571  0.00  0.00    +0.000 HD
BRANCH   8  10
ATOM     10  C   UNL     1      -8.326  14.420   3.997  0.00  0.00    +0.000 C 
ATOM     11  H   UNL     1      -7.667  14.642   3.151  0.00  0.00    +0.000 HD
ATOM     12  H   UNL     1      -9.327  14.226   3.597  0.00  0.00    +0.000 HD
ATOM     13  H   UNL     1      -8.389  15.310   4.631  0.00  0.00    +0.000 HD
ENDBRANCH   8  10
BRANCH   8  14
ATOM     14  C   UNL     1      -6.376  13.437   5.269  0.00  0.00    +0.000 C 
ATOM     15  H   UNL     1      -6.272  14.402   5.777  0.00  0.00    +0.000 HD
ATOM     16  H   UNL     1      -6.058  12.657   5.964  0.00  0.00    +0.000 HD
ATOM     17  H   UNL     1      -5.683  13.416   4.422  0.00  0.00    +0.000 HD
ENDBRANCH   8  14
ENDBRANCH   4   7
ENDBRANCH   1   4
BRANCH   1  18
ATOM     18  C   UNL     1      -8.342  10.025   8.146  0.00  0.00    +0.000 C 
ATOM     19  C   UNL     1      -7.698  10.645   9.154  0.00  0.00    +0.000 C 
ATOM     20  H   UNL     1      -7.691  11.734   9.135  0.00  0.00    +0.000 HD
BRANCH  18  21
ATOM     21  C   UNL     1      -8.354   8.519   8.073  0.00  0.00    +0.000 C 
ATOM     22  H   UNL     1      -9.375   8.159   7.904  0.00  0.00    +0.000 HD
ATOM     23  H   UNL     1      -7.990   8.089   9.012  0.00  0.00    +0.000 HD
ATOM     24  H   UNL     1      -7.752   8.116   7.256  0.00  0.00    +0.000 HD
ENDBRANCH  18  21
BRANCH  19  25
ATOM     25  C   UNL     1      -6.945  10.022  10.286  0.00  0.00    +0.000 C 
ATOM     26  H   UNL     1      -6.833   8.945  10.133  0.00  0.00    +0.000 HD
ATOM     27  H   UNL     1      -7.419  10.203  11.254  0.00  0.00    +0.000 HD
BRANCH  25  28
ATOM     28  O   UNL     1      -5.649  10.602  10.341  0.00  0.00    +0.000 OA
ATOM     29  H   UNL     1      -5.635  11.358   9.729  0.00  0.00    +0.000 HD
ENDBRANCH  25  28
ENDBRANCH  19  25
ENDBRANCH   1  18
TORSDOF 8
ENDMDL
