MODEL 1
REMARK VINA RESULT:    -4.766      0.000      0.000
REMARK INTER + INTRA:          -5.364
REMARK INTER:                  -5.320
REMARK INTRA:                  -0.044
REMARK UNBOUND:                -0.041
REMARK  Name = 460
REMARK  3 active torsions:
REMARK  status: ('A' for Active; 'I' for Inactive)
REMARK    1  A    between atoms: O_1  and  C_3
REMARK    2  A    between atoms: O_1  and  C_9
REMARK    3  A    between atoms: O_2  and  C_4
REMARK                            x       y       z     vdW  Elec       q    Type
REMARK                         _______ _______ _______ _____ _____    ______ ____
ROOT
ATOM      1  C   UNL     1      -1.676   8.066 -11.138  0.00  0.00    +0.000 A 
ATOM      2  C   UNL     1      -1.638   9.164 -10.279  0.00  0.00    +0.000 A 
ATOM      3  C   UNL     1      -2.466   6.960 -10.822  0.00  0.00    +0.000 A 
ATOM      4  C   UNL     1      -2.390   9.157  -9.104  0.00  0.00    +0.000 A 
ATOM      5  C   UNL     1      -3.217   6.953  -9.647  0.00  0.00    +0.000 A 
ATOM      6  C   UNL     1      -3.179   8.052  -8.787  0.00  0.00    +0.000 A 
ATOM      7  H   UNL     1      -2.544   6.073 -11.440  0.00  0.00    +0.000 HD
ATOM      8  H   UNL     1      -2.364  10.010  -8.430  0.00  0.00    +0.000 HD
ATOM      9  H   UNL     1      -3.833   6.093  -9.400  0.00  0.00    +0.000 HD
ATOM     10  H   UNL     1      -3.764   8.046  -7.873  0.00  0.00    +0.000 HD
ENDROOT
BRANCH   2  11
ATOM     11  O   UNL     1      -0.872  10.250 -10.577  0.00  0.00    +0.000 OA
ATOM     12  H   UNL     1      -0.136   9.958 -11.143  0.00  0.00    +0.000 HD
ENDBRANCH   2  11
BRANCH   1  13
ATOM     13  O   UNL     1      -0.946   8.061 -12.289  0.00  0.00    +0.000 OA
BRANCH  13  14
ATOM     14  C   UNL     1      -1.563   7.497 -13.445  0.00  0.00    +0.000 C 
ATOM     15  H   UNL     1      -1.411   8.125 -14.329  0.00  0.00    +0.000 HD
ATOM     16  H   UNL     1      -2.621   7.273 -13.270  0.00  0.00    +0.000 HD
ATOM     17  H   UNL     1      -1.064   6.543 -13.643  0.00  0.00    +0.000 HD
ENDBRANCH  13  14
ENDBRANCH   1  13
TORSDOF 3
ENDMDL
MODEL 2
REMARK VINA RESULT:    -4.614     25.753     26.733
REMARK INTER + INTRA:          -5.194
REMARK INTER:                  -5.147
REMARK INTRA:                  -0.047
REMARK UNBOUND:                -0.041
REMARK  Name = 460
REMARK  3 active torsions:
REMARK  status: ('A' for Active; 'I' for Inactive)
REMARK    1  A    between atoms: O_1  and  C_3
REMARK    2  A    between atoms: O_1  and  C_9
REMARK    3  A    between atoms: O_2  and  C_4
REMARK                            x       y       z     vdW  Elec       q    Type
REMARK                         _______ _______ _______ _____ _____    ______ ____
ROOT
ATOM      1  C   UNL     1     -20.201  -4.026   4.913  0.00  0.00    +0.000 A 
ATOM      2  C   UNL     1     -19.193  -4.960   4.674  0.00  0.00    +0.000 A 
ATOM      3  C   UNL     1     -20.815  -3.372   3.845  0.00  0.00    +0.000 A 
ATOM      4  C   UNL     1     -18.800  -5.241   3.365  0.00  0.00    +0.000 A 
ATOM      5  C   UNL     1     -20.420  -3.654   2.537  0.00  0.00    +0.000 A 
ATOM      6  C   UNL     1     -19.413  -4.588   2.297  0.00  0.00    +0.000 A 
ATOM      7  H   UNL     1     -21.603  -2.636   3.955  0.00  0.00    +0.000 HD
ATOM      8  H   UNL     1     -18.015  -5.969   3.172  0.00  0.00    +0.000 HD
ATOM      9  H   UNL     1     -20.898  -3.146   1.703  0.00  0.00    +0.000 HD
ATOM     10  H   UNL     1     -19.107  -4.807   1.278  0.00  0.00    +0.000 HD
ENDROOT
BRANCH   2  11
ATOM     11  O   UNL     1     -18.587  -5.606   5.709  0.00  0.00    +0.000 OA
ATOM     12  H   UNL     1     -17.779  -6.030   5.373  0.00  0.00    +0.000 HD
ENDBRANCH   2  11
BRANCH   1  13
ATOM     13  O   UNL     1     -20.594  -3.743   6.187  0.00  0.00    +0.000 OA
BRANCH  13  14
ATOM     14  C   UNL     1     -20.690  -2.366   6.545  0.00  0.00    +0.000 C 
ATOM     15  H   UNL     1     -21.684  -1.961   6.330  0.00  0.00    +0.000 HD
ATOM     16  H   UNL     1     -19.891  -1.772   6.086  0.00  0.00    +0.000 HD
ATOM     17  H   UNL     1     -20.549  -2.304   7.629  0.00  0.00    +0.000 HD
ENDBRANCH  13  14
ENDBRANCH   1  13
TORSDOF 3
ENDMDL
MODEL 3
REMARK VINA RESULT:    -4.606      1.276      2.380
REMARK INTER + INTRA:          -5.186
REMARK INTER:                  -5.134
REMARK INTRA:                  -0.052
REMARK UNBOUND:                -0.041
REMARK  Name = 460
REMARK  3 active torsions:
REMARK  status: ('A' for Active; 'I' for Inactive)
REMARK    1  A    between atoms: O_1  and  C_3
REMARK    2  A    between atoms: O_1  and  C_9
REMARK    3  A    between atoms: O_2  and  C_4
REMARK                            x       y       z     vdW  Elec       q    Type
REMARK                         _______ _______ _______ _____ _____    ______ ____
ROOT
ATOM      1  C   UNL     1      -1.344   8.817 -11.112  0.00  0.00    +0.000 A 
ATOM      2  C   UNL     1      -1.777   7.494 -11.199  0.00  0.00    +0.000 A 
ATOM      3  C   UNL     1      -1.843   9.650 -10.110  0.00  0.00    +0.000 A 
ATOM      4  C   UNL     1      -2.709   7.004 -10.284  0.00  0.00    +0.000 A 
ATOM      5  C   UNL     1      -2.774   9.159  -9.195  0.00  0.00    +0.000 A 
ATOM      6  C   UNL     1      -3.207   7.835  -9.282  0.00  0.00    +0.000 A 
ATOM      7  H   UNL     1      -1.553  10.686  -9.981  0.00  0.00    +0.000 HD
ATOM      8  H   UNL     1      -3.050   5.973 -10.347  0.00  0.00    +0.000 HD
ATOM      9  H   UNL     1      -3.162   9.805  -8.413  0.00  0.00    +0.000 HD
ATOM     10  H   UNL     1      -3.932   7.454  -8.570  0.00  0.00    +0.000 HD
ENDROOT
BRANCH   2  11
ATOM     11  O   UNL     1      -1.297   6.671 -12.173  0.00  0.00    +0.000 OA
ATOM     12  H   UNL     1      -1.769   6.870 -13.000  0.00  0.00    +0.000 HD
ENDBRANCH   2  11
BRANCH   1  13
ATOM     13  O   UNL     1      -0.435   9.308 -12.000  0.00  0.00    +0.000 OA
BRANCH  13  14
ATOM     14  C   UNL     1      -0.848  10.407 -12.810  0.00  0.00    +0.000 C 
ATOM     15  H   UNL     1      -1.928  10.392 -12.989  0.00  0.00    +0.000 HD
ATOM     16  H   UNL     1      -0.272  10.462 -13.741  0.00  0.00    +0.000 HD
ATOM     17  H   UNL     1      -0.631  11.321 -12.248  0.00  0.00    +0.000 HD
ENDBRANCH  13  14
ENDBRANCH   1  13
TORSDOF 3
ENDMDL
MODEL 4
REMARK VINA RESULT:    -4.342      2.115      3.178
REMARK INTER + INTRA:          -4.890
REMARK INTER:                  -4.836
REMARK INTRA:                  -0.055
REMARK UNBOUND:                -0.041
REMARK  Name = 460
REMARK  3 active torsions:
REMARK  status: ('A' for Active; 'I' for Inactive)
REMARK    1  A    between atoms: O_1  and  C_3
REMARK    2  A    between atoms: O_1  and  C_9
REMARK    3  A    between atoms: O_2  and  C_4
REMARK                            x       y       z     vdW  Elec       q    Type
REMARK                         _______ _______ _______ _____ _____    ______ ____
ROOT
ATOM      1  C   UNL     1      -2.897   7.571  -9.539  0.00  0.00    +0.000 A 
ATOM      2  C   UNL     1      -2.697   8.900  -9.170  0.00  0.00    +0.000 A 
ATOM      3  C   UNL     1      -2.391   7.099 -10.751  0.00  0.00    +0.000 A 
ATOM      4  C   UNL     1      -1.991   9.759 -10.013  0.00  0.00    +0.000 A 
ATOM      5  C   UNL     1      -1.685   7.958 -11.593  0.00  0.00    +0.000 A 
ATOM      6  C   UNL     1      -1.485   9.289 -11.224  0.00  0.00    +0.000 A 
ATOM      7  H   UNL     1      -2.508   6.080 -11.102  0.00  0.00    +0.000 HD
ATOM      8  H   UNL     1      -1.832  10.797  -9.730  0.00  0.00    +0.000 HD
ATOM      9  H   UNL     1      -1.290   7.593 -12.536  0.00  0.00    +0.000 HD
ATOM     10  H   UNL     1      -0.936   9.957 -11.879  0.00  0.00    +0.000 HD
ENDROOT
BRANCH   2  11
ATOM     11  O   UNL     1      -3.186   9.372  -7.989  0.00  0.00    +0.000 OA
ATOM     12  H   UNL     1      -4.034   8.931  -7.812  0.00  0.00    +0.000 HD
ENDBRANCH   2  11
BRANCH   1  13
ATOM     13  O   UNL     1      -3.585   6.722  -8.725  0.00  0.00    +0.000 OA
BRANCH  13  14
ATOM     14  C   UNL     1      -4.902   6.355  -9.135  0.00  0.00    +0.000 C 
ATOM     15  H   UNL     1      -5.653   6.658  -8.397  0.00  0.00    +0.000 HD
ATOM     16  H   UNL     1      -4.966   5.290  -9.382  0.00  0.00    +0.000 HD
ATOM     17  H   UNL     1      -5.119   6.909 -10.054  0.00  0.00    +0.000 HD
ENDBRANCH  13  14
ENDBRANCH   1  13
TORSDOF 3
ENDMDL
MODEL 5
REMARK VINA RESULT:    -4.250     32.483     33.505
REMARK INTER + INTRA:          -4.788
REMARK INTER:                  -4.736
REMARK INTRA:                  -0.052
REMARK UNBOUND:                -0.041
REMARK  Name = 460
REMARK  3 active torsions:
REMARK  status: ('A' for Active; 'I' for Inactive)
REMARK    1  A    between atoms: O_1  and  C_3
REMARK    2  A    between atoms: O_1  and  C_9
REMARK    3  A    between atoms: O_2  and  C_4
REMARK                            x       y       z     vdW  Elec       q    Type
REMARK                         _______ _______ _______ _____ _____    ______ ____
ROOT
ATOM      1  C   UNL     1      -9.027 -11.281  15.386  0.00  0.00    +0.000 A 
ATOM      2  C   UNL     1      -9.750 -10.094  15.267  0.00  0.00    +0.000 A 
ATOM      3  C   UNL     1      -9.620 -12.405  15.960  0.00  0.00    +0.000 A 
ATOM      4  C   UNL     1     -11.067 -10.031  15.722  0.00  0.00    +0.000 A 
ATOM      5  C   UNL     1     -10.937 -12.341  16.416  0.00  0.00    +0.000 A 
ATOM      6  C   UNL     1     -11.661 -11.154  16.297  0.00  0.00    +0.000 A 
ATOM      7  H   UNL     1      -9.121 -13.359  16.086  0.00  0.00    +0.000 HD
ATOM      8  H   UNL     1     -11.636  -9.109  15.632  0.00  0.00    +0.000 HD
ATOM      9  H   UNL     1     -11.401 -13.216  16.863  0.00  0.00    +0.000 HD
ATOM     10  H   UNL     1     -12.686 -11.106  16.651  0.00  0.00    +0.000 HD
ENDROOT
BRANCH   2  11
ATOM     11  O   UNL     1      -9.181  -8.990  14.706  0.00  0.00    +0.000 OA
ATOM     12  H   UNL     1      -8.708  -9.266  13.902  0.00  0.00    +0.000 HD
ENDBRANCH   2  11
BRANCH   1  13
ATOM     13  O   UNL     1      -7.740 -11.355  14.945  0.00  0.00    +0.000 OA
BRANCH  13  14
ATOM     14  C   UNL     1      -6.734 -11.617  15.921  0.00  0.00    +0.000 C 
ATOM     15  H   UNL     1      -6.531 -12.689  16.014  0.00  0.00    +0.000 HD
ATOM     16  H   UNL     1      -6.976 -11.154  16.885  0.00  0.00    +0.000 HD
ATOM     17  H   UNL     1      -5.810 -11.148  15.566  0.00  0.00    +0.000 HD
ENDBRANCH  13  14
ENDBRANCH   1  13
TORSDOF 3
ENDMDL
MODEL 6
REMARK VINA RESULT:    -4.226     26.862     28.042
REMARK INTER + INTRA:          -4.761
REMARK INTER:                  -4.720
REMARK INTRA:                  -0.041
REMARK UNBOUND:                -0.041
REMARK  Name = 460
REMARK  3 active torsions:
REMARK  status: ('A' for Active; 'I' for Inactive)
REMARK    1  A    between atoms: O_1  and  C_3
REMARK    2  A    between atoms: O_1  and  C_9
REMARK    3  A    between atoms: O_2  and  C_4
REMARK                            x       y       z     vdW  Elec       q    Type
REMARK                         _______ _______ _______ _____ _____    ______ ____
ROOT
ATOM      1  C   UNL     1     -21.826  -2.776   5.999  0.00  0.00    +0.000 A 
ATOM      2  C   UNL     1     -21.553  -2.331   7.292  0.00  0.00    +0.000 A 
ATOM      3  C   UNL     1     -21.370  -2.049   4.899  0.00  0.00    +0.000 A 
ATOM      4  C   UNL     1     -20.823  -1.157   7.485  0.00  0.00    +0.000 A 
ATOM      5  C   UNL     1     -20.641  -0.876   5.094  0.00  0.00    +0.000 A 
ATOM      6  C   UNL     1     -20.367  -0.429   6.387  0.00  0.00    +0.000 A 
ATOM      7  H   UNL     1     -21.544  -2.334   3.868  0.00  0.00    +0.000 HD
ATOM      8  H   UNL     1     -20.607  -0.805   8.491  0.00  0.00    +0.000 HD
ATOM      9  H   UNL     1     -20.284  -0.309   4.238  0.00  0.00    +0.000 HD
ATOM     10  H   UNL     1     -19.800   0.483   6.537  0.00  0.00    +0.000 HD
ENDROOT
BRANCH   2  11
ATOM     11  O   UNL     1     -21.992  -3.033   8.374  0.00  0.00    +0.000 OA
ATOM     12  H   UNL     1     -22.736  -3.592   8.092  0.00  0.00    +0.000 HD
ENDBRANCH   2  11
BRANCH   1  13
ATOM     13  O   UNL     1     -22.537  -3.920   5.797  0.00  0.00    +0.000 OA
BRANCH  13  14
ATOM     14  C   UNL     1     -23.013  -4.162   4.474  0.00  0.00    +0.000 C 
ATOM     15  H   UNL     1     -22.892  -3.282   3.834  0.00  0.00    +0.000 HD
ATOM     16  H   UNL     1     -24.043  -4.536   4.477  0.00  0.00    +0.000 HD
ATOM     17  H   UNL     1     -22.389  -4.954   4.047  0.00  0.00    +0.000 HD
ENDBRANCH  13  14
ENDBRANCH   1  13
TORSDOF 3
ENDMDL
MODEL 7
REMARK VINA RESULT:    -4.200     28.175     29.787
REMARK INTER + INTRA:          -4.732
REMARK INTER:                  -4.677
REMARK INTRA:                  -0.055
REMARK UNBOUND:                -0.041
REMARK  Name = 460
REMARK  3 active torsions:
REMARK  status: ('A' for Active; 'I' for Inactive)
REMARK    1  A    between atoms: O_1  and  C_3
REMARK    2  A    between atoms: O_1  and  C_9
REMARK    3  A    between atoms: O_2  and  C_4
REMARK                            x       y       z     vdW  Elec       q    Type
REMARK                         _______ _______ _______ _____ _____    ______ ____
ROOT
ATOM      1  C   UNL     1      -9.760   9.813  17.580  0.00  0.00    +0.000 A 
ATOM      2  C   UNL     1      -9.012   8.781  18.145  0.00  0.00    +0.000 A 
ATOM      3  C   UNL     1     -10.923  10.257  18.210  0.00  0.00    +0.000 A 
ATOM      4  C   UNL     1      -9.426   8.192  19.340  0.00  0.00    +0.000 A 
ATOM      5  C   UNL     1     -11.337   9.668  19.405  0.00  0.00    +0.000 A 
ATOM      6  C   UNL     1     -10.589   8.635  19.970  0.00  0.00    +0.000 A 
ATOM      7  H   UNL     1     -11.553  11.054  17.830  0.00  0.00    +0.000 HD
ATOM      8  H   UNL     1      -8.847   7.386  19.785  0.00  0.00    +0.000 HD
ATOM      9  H   UNL     1     -12.241  10.014  19.897  0.00  0.00    +0.000 HD
ATOM     10  H   UNL     1     -10.911   8.177  20.899  0.00  0.00    +0.000 HD
ENDROOT
BRANCH   2  11
ATOM     11  O   UNL     1      -7.874   8.339  17.540  0.00  0.00    +0.000 OA
ATOM     12  H   UNL     1      -8.026   7.429  17.231  0.00  0.00    +0.000 HD
ENDBRANCH   2  11
BRANCH   1  13
ATOM     13  O   UNL     1      -9.365  10.396  16.414  0.00  0.00    +0.000 OA
BRANCH  13  14
ATOM     14  C   UNL     1     -10.096  10.052  15.238  0.00  0.00    +0.000 C 
ATOM     15  H   UNL     1     -10.137   8.968  15.091  0.00  0.00    +0.000 HD
ATOM     16  H   UNL     1      -9.713  10.578  14.356  0.00  0.00    +0.000 HD
ATOM     17  H   UNL     1     -11.126  10.392  15.388  0.00  0.00    +0.000 HD
ENDBRANCH  13  14
ENDBRANCH   1  13
TORSDOF 3
ENDMDL
MODEL 8
REMARK VINA RESULT:    -4.160     32.395     33.491
REMARK INTER + INTRA:          -4.687
REMARK INTER:                  -4.637
REMARK INTRA:                  -0.051
REMARK UNBOUND:                -0.041
REMARK  Name = 460
REMARK  3 active torsions:
REMARK  status: ('A' for Active; 'I' for Inactive)
REMARK    1  A    between atoms: O_1  and  C_3
REMARK    2  A    between atoms: O_1  and  C_9
REMARK    3  A    between atoms: O_2  and  C_4
REMARK                            x       y       z     vdW  Elec       q    Type
REMARK                         _______ _______ _______ _____ _____    ______ ____
ROOT
ATOM      1  C   UNL     1     -10.895 -10.108  15.817  0.00  0.00    +0.000 A 
ATOM      2  C   UNL     1      -9.639 -10.071  15.213  0.00  0.00    +0.000 A 
ATOM      3  C   UNL     1     -11.336 -11.275  16.441  0.00  0.00    +0.000 A 
ATOM      4  C   UNL     1      -8.823 -11.202  15.233  0.00  0.00    +0.000 A 
ATOM      5  C   UNL     1     -10.519 -12.405  16.461  0.00  0.00    +0.000 A 
ATOM      6  C   UNL     1      -9.262 -12.369  15.857  0.00  0.00    +0.000 A 
ATOM      7  H   UNL     1     -12.298 -11.376  16.930  0.00  0.00    +0.000 HD
ATOM      8  H   UNL     1      -7.842 -11.180  14.764  0.00  0.00    +0.000 HD
ATOM      9  H   UNL     1     -10.860 -13.314  16.948  0.00  0.00    +0.000 HD
ATOM     10  H   UNL     1      -8.627 -13.249  15.873  0.00  0.00    +0.000 HD
ENDROOT
BRANCH   2  11
ATOM     11  O   UNL     1      -9.197  -8.937  14.601  0.00  0.00    +0.000 OA
ATOM     12  H   UNL     1      -8.294  -8.754  14.912  0.00  0.00    +0.000 HD
ENDBRANCH   2  11
BRANCH   1  13
ATOM     13  O   UNL     1     -11.702  -9.009  15.804  0.00  0.00    +0.000 OA
BRANCH  13  14
ATOM     14  C   UNL     1     -12.985  -9.155  15.198  0.00  0.00    +0.000 C 
ATOM     15  H   UNL     1     -12.963  -9.877  14.374  0.00  0.00    +0.000 HD
ATOM     16  H   UNL     1     -13.400  -8.188  14.893  0.00  0.00    +0.000 HD
ATOM     17  H   UNL     1     -13.657  -9.563  15.960  0.00  0.00    +0.000 HD
ENDBRANCH  13  14
ENDBRANCH   1  13
TORSDOF 3
ENDMDL
MODEL 9
REMARK VINA RESULT:    -4.103      9.790     11.429
REMARK INTER + INTRA:          -4.624
REMARK INTER:                  -4.582
REMARK INTRA:                  -0.041
REMARK UNBOUND:                -0.041
REMARK  Name = 460
REMARK  3 active torsions:
REMARK  status: ('A' for Active; 'I' for Inactive)
REMARK    1  A    between atoms: O_1  and  C_3
REMARK    2  A    between atoms: O_1  and  C_9
REMARK    3  A    between atoms: O_2  and  C_4
REMARK                            x       y       z     vdW  Elec       q    Type
REMARK                         _______ _______ _______ _____ _____    ______ ____
ROOT
ATOM      1  C   UNL     1       2.683  -0.583 -13.543  0.00  0.00    +0.000 A 
ATOM      2  C   UNL     1       3.381  -1.789 -13.503  0.00  0.00    +0.000 A 
ATOM      3  C   UNL     1       3.161   0.475 -14.317  0.00  0.00    +0.000 A 
ATOM      4  C   UNL     1       4.558  -1.939 -14.237  0.00  0.00    +0.000 A 
ATOM      5  C   UNL     1       4.338   0.324 -15.051  0.00  0.00    +0.000 A 
ATOM      6  C   UNL     1       5.036  -0.882 -15.012  0.00  0.00    +0.000 A 
ATOM      7  H   UNL     1       2.673   1.439 -14.396  0.00  0.00    +0.000 HD
ATOM      8  H   UNL     1       5.107  -2.877 -14.210  0.00  0.00    +0.000 HD
ATOM      9  H   UNL     1       4.711   1.147 -15.655  0.00  0.00    +0.000 HD
ATOM     10  H   UNL     1       5.952  -0.998 -15.583  0.00  0.00    +0.000 HD
ENDROOT
BRANCH   2  11
ATOM     11  O   UNL     1       2.924  -2.830 -12.751  0.00  0.00    +0.000 OA
ATOM     12  H   UNL     1       3.692  -3.312 -12.400  0.00  0.00    +0.000 HD
ENDBRANCH   2  11
BRANCH   1  13
ATOM     13  O   UNL     1       1.533  -0.424 -12.830  0.00  0.00    +0.000 OA
BRANCH  13  14
ATOM     14  C   UNL     1       1.163   0.909 -12.484  0.00  0.00    +0.000 C 
ATOM     15  H   UNL     1       0.359   0.925 -11.740  0.00  0.00    +0.000 HD
ATOM     16  H   UNL     1       0.921   1.505 -13.372  0.00  0.00    +0.000 HD
ATOM     17  H   UNL     1       2.037   1.375 -12.017  0.00  0.00    +0.000 HD
ENDBRANCH  13  14
ENDBRANCH   1  13
TORSDOF 3
ENDMDL
MODEL 10
REMARK VINA RESULT:    -4.045     11.677     13.154
REMARK INTER + INTRA:          -4.559
REMARK INTER:                  -4.518
REMARK INTRA:                  -0.041
REMARK UNBOUND:                -0.041
REMARK  Name = 460
REMARK  3 active torsions:
REMARK  status: ('A' for Active; 'I' for Inactive)
REMARK    1  A    between atoms: O_1  and  C_3
REMARK    2  A    between atoms: O_1  and  C_9
REMARK    3  A    between atoms: O_2  and  C_4
REMARK                            x       y       z     vdW  Elec       q    Type
REMARK                         _______ _______ _______ _____ _____    ______ ____
ROOT
ATOM      1  C   UNL     1       4.514  -2.703 -14.832  0.00  0.00    +0.000 A 
ATOM      2  C   UNL     1       3.853  -1.935 -13.873  0.00  0.00    +0.000 A 
ATOM      3  C   UNL     1       5.229  -2.080 -15.854  0.00  0.00    +0.000 A 
ATOM      4  C   UNL     1       3.908  -0.543 -13.938  0.00  0.00    +0.000 A 
ATOM      5  C   UNL     1       5.283  -0.688 -15.918  0.00  0.00    +0.000 A 
ATOM      6  C   UNL     1       4.622   0.081 -14.959  0.00  0.00    +0.000 A 
ATOM      7  H   UNL     1       5.766  -2.612 -16.632  0.00  0.00    +0.000 HD
ATOM      8  H   UNL     1       3.395   0.062 -13.194  0.00  0.00    +0.000 HD
ATOM      9  H   UNL     1       5.840  -0.201 -16.713  0.00  0.00    +0.000 HD
ATOM     10  H   UNL     1       4.665   1.165 -15.010  0.00  0.00    +0.000 HD
ENDROOT
BRANCH   2  11
ATOM     11  O   UNL     1       3.152  -2.533 -12.869  0.00  0.00    +0.000 OA
ATOM     12  H   UNL     1       2.700  -1.839 -12.359  0.00  0.00    +0.000 HD
ENDBRANCH   2  11
BRANCH   1  13
ATOM     13  O   UNL     1       4.468  -4.064 -14.780  0.00  0.00    +0.000 OA
BRANCH  13  14
ATOM     14  C   UNL     1       5.014  -4.774 -15.890  0.00  0.00    +0.000 C 
ATOM     15  H   UNL     1       4.503  -4.517 -16.824  0.00  0.00    +0.000 HD
ATOM     16  H   UNL     1       5.033  -5.855 -15.709  0.00  0.00    +0.000 HD
ATOM     17  H   UNL     1       6.055  -4.451 -15.998  0.00  0.00    +0.000 HD
ENDBRANCH  13  14
ENDBRANCH   1  13
TORSDOF 3
ENDMDL
