MODEL 1
REMARK VINA RESULT:    -5.200      0.000      0.000
REMARK INTER + INTRA:          -8.435
REMARK INTER:                  -7.933
REMARK INTRA:                  -0.502
REMARK UNBOUND:                -0.803
REMARK  Name = 102861
REMARK  9 active torsions:
REMARK  status: ('A' for Active; 'I' for Inactive)
REMARK    1  A    between atoms: O_2  and  C_13
REMARK    2  A    between atoms: O_2  and  C_16
REMARK    3  A    between atoms: C_4  and  C_10
REMARK    4  A    between atoms: C_5  and  C_7
REMARK    5  A    between atoms: C_7  and  C_11
REMARK    6  A    between atoms: C_10  and  C_13
REMARK    7  A    between atoms: C_11  and  C_12
REMARK    8  A    between atoms: C_12  and  C_14
REMARK    9  A    between atoms: C_14  and  C_15
REMARK                            x       y       z     vdW  Elec       q    Type
REMARK                         _______ _______ _______ _____ _____    ______ ____
ROOT
ATOM      1  O   UNL     1     -21.167  -1.171   3.424  0.00  0.00    +0.000 OA
ATOM      2  C   UNL     1     -21.166  -1.838   6.921  0.00  0.00    +0.000 C 
ATOM      3  C   UNL     1     -21.391  -2.395   5.503  0.00  0.00    +0.000 C 
ATOM      4  C   UNL     1     -20.042  -0.811   6.756  0.00  0.00    +0.000 C 
ATOM      5  C   UNL     1     -20.308  -0.128   5.420  0.00  0.00    +0.000 C 
ATOM      6  C   UNL     1     -20.978  -1.225   4.633  0.00  0.00    +0.000 C 
ATOM      7  H   UNL     1     -20.843  -2.604   7.633  0.00  0.00    +0.000 HD
ATOM      8  H   UNL     1     -22.442  -2.624   5.299  0.00  0.00    +0.000 HD
ATOM      9  H   UNL     1     -19.994  -0.090   7.578  0.00  0.00    +0.000 HD
ATOM     10  H   UNL     1     -19.074  -1.326   6.716  0.00  0.00    +0.000 HD
ATOM     11  H   UNL     1     -21.001   0.711   5.525  0.00  0.00    +0.000 HD
ATOM     12  H   UNL     1     -19.383   0.195   4.938  0.00  0.00    +0.000 HD
ENDROOT
BRANCH   3  13
ATOM     13  C   UNL     1     -20.513  -3.599   5.195  0.00  0.00    +0.000 C 
ATOM     14  H   UNL     1     -20.170  -4.079   6.122  0.00  0.00    +0.000 HD
ATOM     15  H   UNL     1     -19.606  -3.266   4.675  0.00  0.00    +0.000 HD
BRANCH  13  16
ATOM     16  C   UNL     1     -21.244  -4.622   4.324  0.00  0.00    +0.000 C 
ATOM     17  H   UNL     1     -22.120  -4.149   3.863  0.00  0.00    +0.000 HD
ATOM     18  H   UNL     1     -21.609  -5.461   4.924  0.00  0.00    +0.000 HD
BRANCH  16  19
ATOM     19  C   UNL     1     -20.333  -5.176   3.227  0.00  0.00    +0.000 C 
ATOM     20  H   UNL     1     -20.505  -6.254   3.114  0.00  0.00    +0.000 HD
ATOM     21  H   UNL     1     -20.587  -4.706   2.269  0.00  0.00    +0.000 HD
BRANCH  19  22
ATOM     22  C   UNL     1     -18.861  -4.921   3.546  0.00  0.00    +0.000 C 
ATOM     23  H   UNL     1     -18.494  -5.683   4.244  0.00  0.00    +0.000 HD
ATOM     24  H   UNL     1     -18.748  -3.949   4.039  0.00  0.00    +0.000 HD
BRANCH  22  25
ATOM     25  C   UNL     1     -18.006  -4.943   2.288  0.00  0.00    +0.000 C 
ATOM     26  H   UNL     1     -16.992  -4.588   2.497  0.00  0.00    +0.000 HD
ATOM     27  H   UNL     1     -18.443  -4.294   1.523  0.00  0.00    +0.000 HD
ATOM     28  H   UNL     1     -17.939  -5.956   1.878  0.00  0.00    +0.000 HD
ENDBRANCH  22  25
ENDBRANCH  19  22
ENDBRANCH  16  19
ENDBRANCH  13  16
ENDBRANCH   3  13
BRANCH   2  29
ATOM     29  C   UNL     1     -22.437  -1.193   7.480  0.00  0.00    +0.000 C 
ATOM     30  H   UNL     1     -23.294  -1.425   6.836  0.00  0.00    +0.000 HD
ATOM     31  H   UNL     1     -22.330  -0.103   7.515  0.00  0.00    +0.000 HD
BRANCH  29  33
ATOM     32  O   UNL     1     -22.641  -2.822   9.273  0.00  0.00    +0.000 OA
ATOM     33  C   UNL     1     -22.743  -1.668   8.880  0.00  0.00    +0.000 C 
BRANCH  33  34
ATOM     34  O   UNL     1     -23.151  -0.600   9.627  0.00  0.00    +0.000 OA
BRANCH  34  35
ATOM     35  C   UNL     1     -24.542  -0.277   9.532  0.00  0.00    +0.000 C 
ATOM     36  H   UNL     1     -25.067  -0.594  10.439  0.00  0.00    +0.000 HD
ATOM     37  H   UNL     1     -24.671   0.797   9.366  0.00  0.00    +0.000 HD
ATOM     38  H   UNL     1     -24.960  -0.817   8.677  0.00  0.00    +0.000 HD
ENDBRANCH  34  35
ENDBRANCH  33  34
ENDBRANCH  29  33
ENDBRANCH   2  29
TORSDOF 9
ENDMDL
MODEL 2
REMARK VINA RESULT:    -5.029      3.080      6.446
REMARK INTER + INTRA:          -8.184
REMARK INTER:                  -7.517
REMARK INTRA:                  -0.668
REMARK UNBOUND:                -0.803
REMARK  Name = 102861
REMARK  9 active torsions:
REMARK  status: ('A' for Active; 'I' for Inactive)
REMARK    1  A    between atoms: O_2  and  C_13
REMARK    2  A    between atoms: O_2  and  C_16
REMARK    3  A    between atoms: C_4  and  C_10
REMARK    4  A    between atoms: C_5  and  C_7
REMARK    5  A    between atoms: C_7  and  C_11
REMARK    6  A    between atoms: C_10  and  C_13
REMARK    7  A    between atoms: C_11  and  C_12
REMARK    8  A    between atoms: C_12  and  C_14
REMARK    9  A    between atoms: C_14  and  C_15
REMARK                            x       y       z     vdW  Elec       q    Type
REMARK                         _______ _______ _______ _____ _____    ______ ____
ROOT
ATOM      1  O   UNL     1     -18.490  -5.711   5.162  0.00  0.00    +0.000 OA
ATOM      2  C   UNL     1     -21.051  -4.161   3.236  0.00  0.00    +0.000 C 
ATOM      3  C   UNL     1     -20.529  -4.511   4.641  0.00  0.00    +0.000 C 
ATOM      4  C   UNL     1     -19.786  -3.913   2.408  0.00  0.00    +0.000 C 
ATOM      5  C   UNL     1     -18.774  -4.942   2.896  0.00  0.00    +0.000 C 
ATOM      6  C   UNL     1     -19.179  -5.127   4.335  0.00  0.00    +0.000 C 
ATOM      7  H   UNL     1     -21.665  -3.255   3.223  0.00  0.00    +0.000 HD
ATOM      8  H   UNL     1     -21.145  -5.262   5.148  0.00  0.00    +0.000 HD
ATOM      9  H   UNL     1     -19.957  -3.989   1.330  0.00  0.00    +0.000 HD
ATOM     10  H   UNL     1     -19.406  -2.903   2.609  0.00  0.00    +0.000 HD
ATOM     11  H   UNL     1     -18.880  -5.895   2.369  0.00  0.00    +0.000 HD
ATOM     12  H   UNL     1     -17.750  -4.571   2.818  0.00  0.00    +0.000 HD
ENDROOT
BRANCH   3  13
ATOM     13  C   UNL     1     -20.348  -3.287   5.527  0.00  0.00    +0.000 C 
ATOM     14  H   UNL     1     -19.304  -2.946   5.512  0.00  0.00    +0.000 HD
ATOM     15  H   UNL     1     -20.562  -3.556   6.569  0.00  0.00    +0.000 HD
BRANCH  13  16
ATOM     16  C   UNL     1     -21.271  -2.143   5.104  0.00  0.00    +0.000 C 
ATOM     17  H   UNL     1     -22.244  -2.256   5.598  0.00  0.00    +0.000 HD
ATOM     18  H   UNL     1     -21.454  -2.163   4.025  0.00  0.00    +0.000 HD
BRANCH  16  19
ATOM     19  C   UNL     1     -20.676  -0.781   5.464  0.00  0.00    +0.000 C 
ATOM     20  H   UNL     1     -19.853  -0.545   4.778  0.00  0.00    +0.000 HD
ATOM     21  H   UNL     1     -21.438  -0.002   5.333  0.00  0.00    +0.000 HD
BRANCH  19  22
ATOM     22  C   UNL     1     -20.168  -0.760   6.905  0.00  0.00    +0.000 C 
ATOM     23  H   UNL     1     -19.499   0.097   7.051  0.00  0.00    +0.000 HD
ATOM     24  H   UNL     1     -19.585  -1.665   7.109  0.00  0.00    +0.000 HD
BRANCH  22  25
ATOM     25  C   UNL     1     -21.315  -0.672   7.899  0.00  0.00    +0.000 C 
ATOM     26  H   UNL     1     -21.844   0.281   7.805  0.00  0.00    +0.000 HD
ATOM     27  H   UNL     1     -20.936  -0.752   8.922  0.00  0.00    +0.000 HD
ATOM     28  H   UNL     1     -22.035  -1.482   7.738  0.00  0.00    +0.000 HD
ENDBRANCH  22  25
ENDBRANCH  19  22
ENDBRANCH  16  19
ENDBRANCH  13  16
ENDBRANCH   3  13
BRANCH   2  29
ATOM     29  C   UNL     1     -21.892  -5.297   2.648  0.00  0.00    +0.000 C 
ATOM     30  H   UNL     1     -22.512  -5.752   3.430  0.00  0.00    +0.000 HD
ATOM     31  H   UNL     1     -21.245  -6.080   2.237  0.00  0.00    +0.000 HD
BRANCH  29  33
ATOM     32  O   UNL     1     -23.300  -3.706   1.466  0.00  0.00    +0.000 OA
ATOM     33  C   UNL     1     -22.793  -4.817   1.536  0.00  0.00    +0.000 C 
BRANCH  33  34
ATOM     34  O   UNL     1     -22.945  -5.825   0.627  0.00  0.00    +0.000 OA
BRANCH  34  35
ATOM     35  C   UNL     1     -21.740  -6.493   0.241  0.00  0.00    +0.000 C 
ATOM     36  H   UNL     1     -21.054  -5.789  -0.240  0.00  0.00    +0.000 HD
ATOM     37  H   UNL     1     -21.268  -6.959   1.111  0.00  0.00    +0.000 HD
ATOM     38  H   UNL     1     -22.000  -7.276  -0.478  0.00  0.00    +0.000 HD
ENDBRANCH  34  35
ENDBRANCH  33  34
ENDBRANCH  29  33
ENDBRANCH   2  29
TORSDOF 9
ENDMDL
MODEL 3
REMARK VINA RESULT:    -4.910     25.262     28.540
REMARK INTER + INTRA:          -8.010
REMARK INTER:                  -7.110
REMARK INTRA:                  -0.900
REMARK UNBOUND:                -0.803
REMARK  Name = 102861
REMARK  9 active torsions:
REMARK  status: ('A' for Active; 'I' for Inactive)
REMARK    1  A    between atoms: O_2  and  C_13
REMARK    2  A    between atoms: O_2  and  C_16
REMARK    3  A    between atoms: C_4  and  C_10
REMARK    4  A    between atoms: C_5  and  C_7
REMARK    5  A    between atoms: C_7  and  C_11
REMARK    6  A    between atoms: C_10  and  C_13
REMARK    7  A    between atoms: C_11  and  C_12
REMARK    8  A    between atoms: C_12  and  C_14
REMARK    9  A    between atoms: C_14  and  C_15
REMARK                            x       y       z     vdW  Elec       q    Type
REMARK                         _______ _______ _______ _____ _____    ______ ____
ROOT
ATOM      1  O   UNL     1      -4.515  10.701 -13.140  0.00  0.00    +0.000 OA
ATOM      2  C   UNL     1      -2.689   7.820 -12.123  0.00  0.00    +0.000 C 
ATOM      3  C   UNL     1      -2.896   9.337 -11.962  0.00  0.00    +0.000 C 
ATOM      4  C   UNL     1      -4.090   7.269 -12.407  0.00  0.00    +0.000 C 
ATOM      5  C   UNL     1      -4.762   8.309 -13.295  0.00  0.00    +0.000 C 
ATOM      6  C   UNL     1      -4.109   9.586 -12.836  0.00  0.00    +0.000 C 
ATOM      7  H   UNL     1      -2.300   7.345 -11.217  0.00  0.00    +0.000 HD
ATOM      8  H   UNL     1      -2.059   9.923 -12.355  0.00  0.00    +0.000 HD
ATOM      9  H   UNL     1      -4.076   6.281 -12.877  0.00  0.00    +0.000 HD
ATOM     10  H   UNL     1      -4.648   7.176 -11.467  0.00  0.00    +0.000 HD
ATOM     11  H   UNL     1      -4.532   8.149 -14.352  0.00  0.00    +0.000 HD
ATOM     12  H   UNL     1      -5.842   8.339 -13.137  0.00  0.00    +0.000 HD
ENDROOT
BRANCH   3  13
ATOM     13  C   UNL     1      -3.204   9.742 -10.528  0.00  0.00    +0.000 C 
ATOM     14  H   UNL     1      -4.263   9.571 -10.293  0.00  0.00    +0.000 HD
ATOM     15  H   UNL     1      -3.040  10.821 -10.411  0.00  0.00    +0.000 HD
BRANCH  13  16
ATOM     16  C   UNL     1      -2.325   8.989  -9.528  0.00  0.00    +0.000 C 
ATOM     17  H   UNL     1      -1.662   9.699  -9.018  0.00  0.00    +0.000 HD
ATOM     18  H   UNL     1      -1.687   8.260 -10.036  0.00  0.00    +0.000 HD
BRANCH  16  19
ATOM     19  C   UNL     1      -3.168   8.247  -8.489  0.00  0.00    +0.000 C 
ATOM     20  H   UNL     1      -2.689   8.321  -7.505  0.00  0.00    +0.000 HD
ATOM     21  H   UNL     1      -4.151   8.727  -8.406  0.00  0.00    +0.000 HD
BRANCH  19  22
ATOM     22  C   UNL     1      -3.347   6.777  -8.866  0.00  0.00    +0.000 C 
ATOM     23  H   UNL     1      -2.784   6.144  -8.171  0.00  0.00    +0.000 HD
ATOM     24  H   UNL     1      -2.944   6.597  -9.869  0.00  0.00    +0.000 HD
BRANCH  22  25
ATOM     25  C   UNL     1      -4.812   6.370  -8.838  0.00  0.00    +0.000 C 
ATOM     26  H   UNL     1      -5.405   7.078  -8.251  0.00  0.00    +0.000 HD
ATOM     27  H   UNL     1      -4.920   5.379  -8.386  0.00  0.00    +0.000 HD
ATOM     28  H   UNL     1      -5.226   6.330  -9.851  0.00  0.00    +0.000 HD
ENDBRANCH  22  25
ENDBRANCH  19  22
ENDBRANCH  16  19
ENDBRANCH  13  16
ENDBRANCH   3  13
BRANCH   2  29
ATOM     29  C   UNL     1      -1.719   7.502 -13.265  0.00  0.00    +0.000 C 
ATOM     30  H   UNL     1      -2.244   7.539 -14.227  0.00  0.00    +0.000 HD
ATOM     31  H   UNL     1      -1.307   6.494 -13.147  0.00  0.00    +0.000 HD
BRANCH  29  33
ATOM     32  O   UNL     1       0.254   8.638 -12.413  0.00  0.00    +0.000 OA
ATOM     33  C   UNL     1      -0.562   8.469 -13.309  0.00  0.00    +0.000 C 
BRANCH  33  34
ATOM     34  O   UNL     1      -0.577   9.119 -14.511  0.00  0.00    +0.000 OA
BRANCH  34  35
ATOM     35  C   UNL     1       0.675   9.168 -15.202  0.00  0.00    +0.000 C 
ATOM     36  H   UNL     1       1.064   8.156 -15.351  0.00  0.00    +0.000 HD
ATOM     37  H   UNL     1       0.560   9.684 -16.159  0.00  0.00    +0.000 HD
ATOM     38  H   UNL     1       1.383   9.728 -14.584  0.00  0.00    +0.000 HD
ENDBRANCH  34  35
ENDBRANCH  33  34
ENDBRANCH  29  33
ENDBRANCH   2  29
TORSDOF 9
ENDMDL
MODEL 4
REMARK VINA RESULT:    -4.897     23.338     26.446
REMARK INTER + INTRA:          -7.990
REMARK INTER:                  -7.158
REMARK INTRA:                  -0.832
REMARK UNBOUND:                -0.803
REMARK  Name = 102861
REMARK  9 active torsions:
REMARK  status: ('A' for Active; 'I' for Inactive)
REMARK    1  A    between atoms: O_2  and  C_13
REMARK    2  A    between atoms: O_2  and  C_16
REMARK    3  A    between atoms: C_4  and  C_10
REMARK    4  A    between atoms: C_5  and  C_7
REMARK    5  A    between atoms: C_7  and  C_11
REMARK    6  A    between atoms: C_10  and  C_13
REMARK    7  A    between atoms: C_11  and  C_12
REMARK    8  A    between atoms: C_12  and  C_14
REMARK    9  A    between atoms: C_14  and  C_15
REMARK                            x       y       z     vdW  Elec       q    Type
REMARK                         _______ _______ _______ _____ _____    ______ ____
ROOT
ATOM      1  O   UNL     1      -3.430   7.227 -14.485  0.00  0.00    +0.000 OA
ATOM      2  C   UNL     1      -3.715   7.643 -10.961  0.00  0.00    +0.000 C 
ATOM      3  C   UNL     1      -4.450   7.544 -12.310  0.00  0.00    +0.000 C 
ATOM      4  C   UNL     1      -2.510   6.709 -11.111  0.00  0.00    +0.000 C 
ATOM      5  C   UNL     1      -2.036   6.885 -12.549  0.00  0.00    +0.000 C 
ATOM      6  C   UNL     1      -3.319   7.219 -13.265  0.00  0.00    +0.000 C 
ATOM      7  H   UNL     1      -4.323   7.301 -10.118  0.00  0.00    +0.000 HD
ATOM      8  H   UNL     1      -4.901   8.494 -12.618  0.00  0.00    +0.000 HD
ATOM      9  H   UNL     1      -1.712   6.917 -10.392  0.00  0.00    +0.000 HD
ATOM     10  H   UNL     1      -2.827   5.670 -10.956  0.00  0.00    +0.000 HD
ATOM     11  H   UNL     1      -1.343   7.725 -12.646  0.00  0.00    +0.000 HD
ATOM     12  H   UNL     1      -1.591   5.970 -12.943  0.00  0.00    +0.000 HD
ENDROOT
BRANCH   3  13
ATOM     13  C   UNL     1      -5.484   6.429 -12.339  0.00  0.00    +0.000 C 
ATOM     14  H   UNL     1      -5.021   5.462 -12.102  0.00  0.00    +0.000 HD
ATOM     15  H   UNL     1      -5.884   6.330 -13.356  0.00  0.00    +0.000 HD
BRANCH  13  16
ATOM     16  C   UNL     1      -6.636   6.702 -11.371  0.00  0.00    +0.000 C 
ATOM     17  H   UNL     1      -7.543   6.941 -11.939  0.00  0.00    +0.000 HD
ATOM     18  H   UNL     1      -6.419   7.565 -10.734  0.00  0.00    +0.000 HD
BRANCH  16  19
ATOM     19  C   UNL     1      -6.906   5.497 -10.468  0.00  0.00    +0.000 C 
ATOM     20  H   UNL     1      -7.982   5.285 -10.449  0.00  0.00    +0.000 HD
ATOM     21  H   UNL     1      -6.410   4.611 -10.883  0.00  0.00    +0.000 HD
BRANCH  19  22
ATOM     22  C   UNL     1      -6.405   5.744  -9.046  0.00  0.00    +0.000 C 
ATOM     23  H   UNL     1      -6.884   6.639  -8.633  0.00  0.00    +0.000 HD
ATOM     24  H   UNL     1      -5.325   5.929  -9.057  0.00  0.00    +0.000 HD
BRANCH  22  25
ATOM     25  C   UNL     1      -6.696   4.558  -8.139  0.00  0.00    +0.000 C 
ATOM     26  H   UNL     1      -5.935   3.781  -8.253  0.00  0.00    +0.000 HD
ATOM     27  H   UNL     1      -7.668   4.121  -8.388  0.00  0.00    +0.000 HD
ATOM     28  H   UNL     1      -6.720   4.866  -7.088  0.00  0.00    +0.000 HD
ENDBRANCH  22  25
ENDBRANCH  19  22
ENDBRANCH  16  19
ENDBRANCH  13  16
ENDBRANCH   3  13
BRANCH   2  29
ATOM     29  C   UNL     1      -3.276   9.079 -10.662  0.00  0.00    +0.000 C 
ATOM     30  H   UNL     1      -4.148   9.744 -10.643  0.00  0.00    +0.000 HD
ATOM     31  H   UNL     1      -2.596   9.442 -11.441  0.00  0.00    +0.000 HD
BRANCH  29  33
ATOM     32  O   UNL     1      -3.018   8.857  -8.255  0.00  0.00    +0.000 OA
ATOM     33  C   UNL     1      -2.558   9.188  -9.339  0.00  0.00    +0.000 C 
BRANCH  33  34
ATOM     34  O   UNL     1      -1.315   9.713  -9.556  0.00  0.00    +0.000 OA
BRANCH  34  35
ATOM     35  C   UNL     1      -1.050  10.137 -10.896  0.00  0.00    +0.000 C 
ATOM     36  H   UNL     1      -0.161  10.774 -10.923  0.00  0.00    +0.000 HD
ATOM     37  H   UNL     1      -0.924   9.269 -11.551  0.00  0.00    +0.000 HD
ATOM     38  H   UNL     1      -1.909  10.718 -11.246  0.00  0.00    +0.000 HD
ENDBRANCH  34  35
ENDBRANCH  33  34
ENDBRANCH  29  33
ENDBRANCH   2  29
TORSDOF 9
ENDMDL
MODEL 5
REMARK VINA RESULT:    -4.894     16.808     18.178
REMARK INTER + INTRA:          -7.986
REMARK INTER:                  -7.305
REMARK INTRA:                  -0.681
REMARK UNBOUND:                -0.803
REMARK  Name = 102861
REMARK  9 active torsions:
REMARK  status: ('A' for Active; 'I' for Inactive)
REMARK    1  A    between atoms: O_2  and  C_13
REMARK    2  A    between atoms: O_2  and  C_16
REMARK    3  A    between atoms: C_4  and  C_10
REMARK    4  A    between atoms: C_5  and  C_7
REMARK    5  A    between atoms: C_7  and  C_11
REMARK    6  A    between atoms: C_10  and  C_13
REMARK    7  A    between atoms: C_11  and  C_12
REMARK    8  A    between atoms: C_12  and  C_14
REMARK    9  A    between atoms: C_14  and  C_15
REMARK                            x       y       z     vdW  Elec       q    Type
REMARK                         _______ _______ _______ _____ _____    ______ ____
ROOT
ATOM      1  O   UNL     1      -7.234  12.342   8.549  0.00  0.00    +0.000 OA
ATOM      2  C   UNL     1      -8.650   9.416  10.001  0.00  0.00    +0.000 C 
ATOM      3  C   UNL     1      -8.766  10.501   8.915  0.00  0.00    +0.000 C 
ATOM      4  C   UNL     1      -7.142   9.200  10.168  0.00  0.00    +0.000 C 
ATOM      5  C   UNL     1      -6.517  10.583  10.033  0.00  0.00    +0.000 C 
ATOM      6  C   UNL     1      -7.475  11.274   9.098  0.00  0.00    +0.000 C 
ATOM      7  H   UNL     1      -9.112   8.468   9.707  0.00  0.00    +0.000 HD
ATOM      8  H   UNL     1      -9.605  11.183   9.085  0.00  0.00    +0.000 HD
ATOM      9  H   UNL     1      -6.879   8.725  11.118  0.00  0.00    +0.000 HD
ATOM     10  H   UNL     1      -6.771   8.552   9.364  0.00  0.00    +0.000 HD
ATOM     11  H   UNL     1      -6.503  11.116  10.988  0.00  0.00    +0.000 HD
ATOM     12  H   UNL     1      -5.514  10.534   9.605  0.00  0.00    +0.000 HD
ENDROOT
BRANCH   3  13
ATOM     13  C   UNL     1      -8.825   9.924   7.508  0.00  0.00    +0.000 C 
ATOM     14  H   UNL     1      -8.997   8.840   7.538  0.00  0.00    +0.000 HD
ATOM     15  H   UNL     1      -7.854  10.063   7.016  0.00  0.00    +0.000 HD
BRANCH  13  16
ATOM     16  C   UNL     1      -9.913  10.597   6.668  0.00  0.00    +0.000 C 
ATOM     17  H   UNL     1     -10.579  11.170   7.324  0.00  0.00    +0.000 HD
ATOM     18  H   UNL     1     -10.529   9.854   6.153  0.00  0.00    +0.000 HD
BRANCH  16  19
ATOM     19  C   UNL     1      -9.311  11.532   5.617  0.00  0.00    +0.000 C 
ATOM     20  H   UNL     1      -9.972  11.579   4.743  0.00  0.00    +0.000 HD
ATOM     21  H   UNL     1      -9.244  12.548   6.027  0.00  0.00    +0.000 HD
BRANCH  19  22
ATOM     22  C   UNL     1      -7.921  11.063   5.187  0.00  0.00    +0.000 C 
ATOM     23  H   UNL     1      -8.006  10.389   4.326  0.00  0.00    +0.000 HD
ATOM     24  H   UNL     1      -7.450  10.496   5.998  0.00  0.00    +0.000 HD
BRANCH  22  25
ATOM     25  C   UNL     1      -7.028  12.237   4.817  0.00  0.00    +0.000 C 
ATOM     26  H   UNL     1      -6.166  11.903   4.231  0.00  0.00    +0.000 HD
ATOM     27  H   UNL     1      -6.655  12.729   5.720  0.00  0.00    +0.000 HD
ATOM     28  H   UNL     1      -7.579  12.978   4.228  0.00  0.00    +0.000 HD
ENDBRANCH  22  25
ENDBRANCH  19  22
ENDBRANCH  16  19
ENDBRANCH  13  16
ENDBRANCH   3  13
BRANCH   2  29
ATOM     29  C   UNL     1      -9.301   9.861  11.313  0.00  0.00    +0.000 C 
ATOM     30  H   UNL     1      -9.948  10.729  11.139  0.00  0.00    +0.000 HD
ATOM     31  H   UNL     1      -8.536  10.154  12.040  0.00  0.00    +0.000 HD
BRANCH  29  33
ATOM     32  O   UNL     1     -10.370   7.680  11.419  0.00  0.00    +0.000 OA
ATOM     33  C   UNL     1     -10.127   8.761  11.936  0.00  0.00    +0.000 C 
BRANCH  33  34
ATOM     34  O   UNL     1     -10.553   9.175  13.166  0.00  0.00    +0.000 OA
BRANCH  34  35
ATOM     35  C   UNL     1     -11.854   9.769  13.200  0.00  0.00    +0.000 C 
ATOM     36  H   UNL     1     -12.132  10.014  14.230  0.00  0.00    +0.000 HD
ATOM     37  H   UNL     1     -11.879  10.663  12.570  0.00  0.00    +0.000 HD
ATOM     38  H   UNL     1     -12.571   9.043  12.806  0.00  0.00    +0.000 HD
ENDBRANCH  34  35
ENDBRANCH  33  34
ENDBRANCH  29  33
ENDBRANCH   2  29
TORSDOF 9
ENDMDL
MODEL 6
REMARK VINA RESULT:    -4.875      2.081      2.551
REMARK INTER + INTRA:          -7.959
REMARK INTER:                  -6.916
REMARK INTRA:                  -1.043
REMARK UNBOUND:                -0.803
REMARK  Name = 102861
REMARK  9 active torsions:
REMARK  status: ('A' for Active; 'I' for Inactive)
REMARK    1  A    between atoms: O_2  and  C_13
REMARK    2  A    between atoms: O_2  and  C_16
REMARK    3  A    between atoms: C_4  and  C_10
REMARK    4  A    between atoms: C_5  and  C_7
REMARK    5  A    between atoms: C_7  and  C_11
REMARK    6  A    between atoms: C_10  and  C_13
REMARK    7  A    between atoms: C_11  and  C_12
REMARK    8  A    between atoms: C_12  and  C_14
REMARK    9  A    between atoms: C_14  and  C_15
REMARK                            x       y       z     vdW  Elec       q    Type
REMARK                         _______ _______ _______ _____ _____    ______ ____
ROOT
ATOM      1  O   UNL     1     -20.141   0.389   4.910  0.00  0.00    +0.000 OA
ATOM      2  C   UNL     1     -22.077  -2.308   6.196  0.00  0.00    +0.000 C 
ATOM      3  C   UNL     1     -21.703  -1.463   4.965  0.00  0.00    +0.000 C 
ATOM      4  C   UNL     1     -20.789  -2.369   7.025  0.00  0.00    +0.000 C 
ATOM      5  C   UNL     1     -20.152  -0.992   6.885  0.00  0.00    +0.000 C 
ATOM      6  C   UNL     1     -20.607  -0.571   5.512  0.00  0.00    +0.000 C 
ATOM      7  H   UNL     1     -22.378  -3.328   5.938  0.00  0.00    +0.000 HD
ATOM      8  H   UNL     1     -22.526  -0.829   4.620  0.00  0.00    +0.000 HD
ATOM      9  H   UNL     1     -20.965  -2.631   8.073  0.00  0.00    +0.000 HD
ATOM     10  H   UNL     1     -20.116  -3.128   6.606  0.00  0.00    +0.000 HD
ATOM     11  H   UNL     1     -20.543  -0.287   7.624  0.00  0.00    +0.000 HD
ATOM     12  H   UNL     1     -19.062  -1.043   6.941  0.00  0.00    +0.000 HD
ENDROOT
BRANCH   3  13
ATOM     13  C   UNL     1     -21.158  -2.301   3.817  0.00  0.00    +0.000 C 
ATOM     14  H   UNL     1     -20.088  -2.506   3.957  0.00  0.00    +0.000 HD
ATOM     15  H   UNL     1     -21.236  -1.732   2.882  0.00  0.00    +0.000 HD
BRANCH  13  16
ATOM     16  C   UNL     1     -21.922  -3.618   3.668  0.00  0.00    +0.000 C 
ATOM     17  H   UNL     1     -22.588  -3.558   2.798  0.00  0.00    +0.000 HD
ATOM     18  H   UNL     1     -22.550  -3.810   4.542  0.00  0.00    +0.000 HD
BRANCH  16  19
ATOM     19  C   UNL     1     -20.968  -4.801   3.494  0.00  0.00    +0.000 C 
ATOM     20  H   UNL     1     -21.314  -5.646   4.102  0.00  0.00    +0.000 HD
ATOM     21  H   UNL     1     -20.980  -5.131   2.448  0.00  0.00    +0.000 HD
BRANCH  19  22
ATOM     22  C   UNL     1     -19.541  -4.429   3.894  0.00  0.00    +0.000 C 
ATOM     23  H   UNL     1     -19.541  -3.466   4.418  0.00  0.00    +0.000 HD
ATOM     24  H   UNL     1     -18.920  -4.312   2.999  0.00  0.00    +0.000 HD
BRANCH  22  25
ATOM     25  C   UNL     1     -18.921  -5.486   4.794  0.00  0.00    +0.000 C 
ATOM     26  H   UNL     1     -17.993  -5.874   4.363  0.00  0.00    +0.000 HD
ATOM     27  H   UNL     1     -19.611  -6.325   4.925  0.00  0.00    +0.000 HD
ATOM     28  H   UNL     1     -18.694  -5.074   5.784  0.00  0.00    +0.000 HD
ENDBRANCH  22  25
ENDBRANCH  19  22
ENDBRANCH  16  19
ENDBRANCH  13  16
ENDBRANCH   3  13
BRANCH   2  29
ATOM     29  C   UNL     1     -23.223  -1.673   6.987  0.00  0.00    +0.000 C 
ATOM     30  H   UNL     1     -23.259  -0.593   6.801  0.00  0.00    +0.000 HD
ATOM     31  H   UNL     1     -23.076  -1.823   8.063  0.00  0.00    +0.000 HD
BRANCH  29  33
ATOM     32  O   UNL     1     -25.627  -1.670   6.623  0.00  0.00    +0.000 OA
ATOM     33  C   UNL     1     -24.561  -2.270   6.622  0.00  0.00    +0.000 C 
BRANCH  33  34
ATOM     34  O   UNL     1     -24.381  -3.583   6.290  0.00  0.00    +0.000 OA
BRANCH  34  35
ATOM     35  C   UNL     1     -25.209  -4.515   6.993  0.00  0.00    +0.000 C 
ATOM     36  H   UNL     1     -24.618  -5.062   7.734  0.00  0.00    +0.000 HD
ATOM     37  H   UNL     1     -26.044  -3.994   7.471  0.00  0.00    +0.000 HD
ATOM     38  H   UNL     1     -25.611  -5.228   6.267  0.00  0.00    +0.000 HD
ENDBRANCH  34  35
ENDBRANCH  33  34
ENDBRANCH  29  33
ENDBRANCH   2  29
TORSDOF 9
ENDMDL
MODEL 7
REMARK VINA RESULT:    -4.819     16.962     18.793
REMARK INTER + INTRA:          -7.876
REMARK INTER:                  -6.905
REMARK INTRA:                  -0.971
REMARK UNBOUND:                -0.803
REMARK  Name = 102861
REMARK  9 active torsions:
REMARK  status: ('A' for Active; 'I' for Inactive)
REMARK    1  A    between atoms: O_2  and  C_13
REMARK    2  A    between atoms: O_2  and  C_16
REMARK    3  A    between atoms: C_4  and  C_10
REMARK    4  A    between atoms: C_5  and  C_7
REMARK    5  A    between atoms: C_7  and  C_11
REMARK    6  A    between atoms: C_10  and  C_13
REMARK    7  A    between atoms: C_11  and  C_12
REMARK    8  A    between atoms: C_12  and  C_14
REMARK    9  A    between atoms: C_14  and  C_15
REMARK                            x       y       z     vdW  Elec       q    Type
REMARK                         _______ _______ _______ _____ _____    ______ ____
ROOT
ATOM      1  O   UNL     1      -9.604   7.831  -8.956  0.00  0.00    +0.000 OA
ATOM      2  C   UNL     1     -10.668   7.836  -5.559  0.00  0.00    +0.000 C 
ATOM      3  C   UNL     1      -9.976   7.055  -6.691  0.00  0.00    +0.000 C 
ATOM      4  C   UNL     1     -10.287   9.298  -5.813  0.00  0.00    +0.000 C 
ATOM      5  C   UNL     1     -10.304   9.464  -7.328  0.00  0.00    +0.000 C 
ATOM      6  C   UNL     1      -9.922   8.086  -7.801  0.00  0.00    +0.000 C 
ATOM      7  H   UNL     1     -10.314   7.547  -4.564  0.00  0.00    +0.000 HD
ATOM      8  H   UNL     1     -10.566   6.201  -7.040  0.00  0.00    +0.000 HD
ATOM      9  H   UNL     1     -10.957  10.008  -5.319  0.00  0.00    +0.000 HD
ATOM     10  H   UNL     1      -9.275   9.487  -5.436  0.00  0.00    +0.000 HD
ATOM     11  H   UNL     1     -11.304   9.704  -7.698  0.00  0.00    +0.000 HD
ATOM     12  H   UNL     1      -9.580  10.210  -7.661  0.00  0.00    +0.000 HD
ENDROOT
BRANCH   3  13
ATOM     13  C   UNL     1      -8.565   6.615  -6.329  0.00  0.00    +0.000 C 
ATOM     14  H   UNL     1      -7.860   7.451  -6.422  0.00  0.00    +0.000 HD
ATOM     15  H   UNL     1      -8.226   5.854  -7.043  0.00  0.00    +0.000 HD
BRANCH  13  16
ATOM     16  C   UNL     1      -8.500   6.039  -4.913  0.00  0.00    +0.000 C 
ATOM     17  H   UNL     1      -9.457   6.208  -4.405  0.00  0.00    +0.000 HD
ATOM     18  H   UNL     1      -7.728   6.538  -4.320  0.00  0.00    +0.000 HD
BRANCH  16  19
ATOM     19  C   UNL     1      -8.196   4.539  -4.932  0.00  0.00    +0.000 C 
ATOM     20  H   UNL     1      -7.625   4.291  -5.835  0.00  0.00    +0.000 HD
ATOM     21  H   UNL     1      -7.565   4.283  -4.071  0.00  0.00    +0.000 HD
BRANCH  19  22
ATOM     22  C   UNL     1      -9.479   3.711  -4.889  0.00  0.00    +0.000 C 
ATOM     23  H   UNL     1     -10.292   4.307  -4.459  0.00  0.00    +0.000 HD
ATOM     24  H   UNL     1      -9.338   2.838  -4.242  0.00  0.00    +0.000 HD
BRANCH  22  25
ATOM     25  C   UNL     1      -9.885   3.241  -6.277  0.00  0.00    +0.000 C 
ATOM     26  H   UNL     1     -10.971   3.280  -6.402  0.00  0.00    +0.000 HD
ATOM     27  H   UNL     1      -9.561   2.208  -6.437  0.00  0.00    +0.000 HD
ATOM     28  H   UNL     1      -9.427   3.865  -7.052  0.00  0.00    +0.000 HD
ENDBRANCH  22  25
ENDBRANCH  19  22
ENDBRANCH  16  19
ENDBRANCH  13  16
ENDBRANCH   3  13
BRANCH   2  29
ATOM     29  C   UNL     1     -12.186   7.639  -5.585  0.00  0.00    +0.000 C 
ATOM     30  H   UNL     1     -12.627   8.210  -6.410  0.00  0.00    +0.000 HD
ATOM     31  H   UNL     1     -12.635   7.997  -4.652  0.00  0.00    +0.000 HD
BRANCH  29  33
ATOM     32  O   UNL     1     -12.466   5.329  -4.881  0.00  0.00    +0.000 OA
ATOM     33  C   UNL     1     -12.565   6.187  -5.747  0.00  0.00    +0.000 C 
BRANCH  33  34
ATOM     34  O   UNL     1     -13.034   5.994  -7.015  0.00  0.00    +0.000 OA
BRANCH  34  35
ATOM     35  C   UNL     1     -13.701   7.116  -7.603  0.00  0.00    +0.000 C 
ATOM     36  H   UNL     1     -14.627   6.793  -8.089  0.00  0.00    +0.000 HD
ATOM     37  H   UNL     1     -13.908   7.875  -6.842  0.00  0.00    +0.000 HD
ATOM     38  H   UNL     1     -13.039   7.548  -8.359  0.00  0.00    +0.000 HD
ENDBRANCH  34  35
ENDBRANCH  33  34
ENDBRANCH  29  33
ENDBRANCH   2  29
TORSDOF 9
ENDMDL
MODEL 8
REMARK VINA RESULT:    -4.789     25.567     27.914
REMARK INTER + INTRA:          -7.832
REMARK INTER:                  -7.032
REMARK INTRA:                  -0.799
REMARK UNBOUND:                -0.803
REMARK  Name = 102861
REMARK  9 active torsions:
REMARK  status: ('A' for Active; 'I' for Inactive)
REMARK    1  A    between atoms: O_2  and  C_13
REMARK    2  A    between atoms: O_2  and  C_16
REMARK    3  A    between atoms: C_4  and  C_10
REMARK    4  A    between atoms: C_5  and  C_7
REMARK    5  A    between atoms: C_7  and  C_11
REMARK    6  A    between atoms: C_10  and  C_13
REMARK    7  A    between atoms: C_11  and  C_12
REMARK    8  A    between atoms: C_12  and  C_14
REMARK    9  A    between atoms: C_14  and  C_15
REMARK                            x       y       z     vdW  Elec       q    Type
REMARK                         _______ _______ _______ _____ _____    ______ ____
ROOT
ATOM      1  O   UNL     1      -3.137   8.925  -7.999  0.00  0.00    +0.000 OA
ATOM      2  C   UNL     1      -3.127   8.026 -11.444  0.00  0.00    +0.000 C 
ATOM      3  C   UNL     1      -2.865   9.125 -10.398  0.00  0.00    +0.000 C 
ATOM      4  C   UNL     1      -2.738   6.724 -10.736  0.00  0.00    +0.000 C 
ATOM      5  C   UNL     1      -3.197   6.893  -9.294  0.00  0.00    +0.000 C 
ATOM      6  C   UNL     1      -3.073   8.381  -9.095  0.00  0.00    +0.000 C 
ATOM      7  H   UNL     1      -2.512   8.137 -12.342  0.00  0.00    +0.000 HD
ATOM      8  H   UNL     1      -3.592   9.942 -10.450  0.00  0.00    +0.000 HD
ATOM      9  H   UNL     1      -3.176   5.835 -11.201  0.00  0.00    +0.000 HD
ATOM     10  H   UNL     1      -1.648   6.602 -10.761  0.00  0.00    +0.000 HD
ATOM     11  H   UNL     1      -4.242   6.600  -9.164  0.00  0.00    +0.000 HD
ATOM     12  H   UNL     1      -2.556   6.347  -8.598  0.00  0.00    +0.000 HD
ENDROOT
BRANCH   3  13
ATOM     13  C   UNL     1      -1.445   9.670 -10.457  0.00  0.00    +0.000 C 
ATOM     14  H   UNL     1      -0.734   8.954 -10.025  0.00  0.00    +0.000 HD
ATOM     15  H   UNL     1      -1.376  10.574  -9.838  0.00  0.00    +0.000 HD
BRANCH  13  16
ATOM     16  C   UNL     1      -1.031  10.010 -11.890  0.00  0.00    +0.000 C 
ATOM     17  H   UNL     1      -0.577  11.008 -11.913  0.00  0.00    +0.000 HD
ATOM     18  H   UNL     1      -1.899  10.037 -12.555  0.00  0.00    +0.000 HD
BRANCH  16  19
ATOM     19  C   UNL     1      -0.035   8.988 -12.442  0.00  0.00    +0.000 C 
ATOM     20  H   UNL     1       0.957   9.171 -12.013  0.00  0.00    +0.000 HD
ATOM     21  H   UNL     1      -0.339   7.979 -12.135  0.00  0.00    +0.000 HD
BRANCH  19  22
ATOM     22  C   UNL     1       0.042   9.054 -13.967  0.00  0.00    +0.000 C 
ATOM     23  H   UNL     1       1.022   8.700 -14.305  0.00  0.00    +0.000 HD
ATOM     24  H   UNL     1      -0.062  10.093 -14.301  0.00  0.00    +0.000 HD
BRANCH  22  25
ATOM     25  C   UNL     1      -1.045   8.212 -14.617  0.00  0.00    +0.000 C 
ATOM     26  H   UNL     1      -0.615   7.354 -15.141  0.00  0.00    +0.000 HD
ATOM     27  H   UNL     1      -1.603   8.810 -15.344  0.00  0.00    +0.000 HD
ATOM     28  H   UNL     1      -1.752   7.840 -13.868  0.00  0.00    +0.000 HD
ENDBRANCH  22  25
ENDBRANCH  19  22
ENDBRANCH  16  19
ENDBRANCH  13  16
ENDBRANCH   3  13
BRANCH   2  29
ATOM     29  C   UNL     1      -4.593   8.007 -11.886  0.00  0.00    +0.000 C 
ATOM     30  H   UNL     1      -4.820   8.902 -12.478  0.00  0.00    +0.000 HD
ATOM     31  H   UNL     1      -5.256   8.007 -11.013  0.00  0.00    +0.000 HD
BRANCH  29  33
ATOM     32  O   UNL     1      -5.771   5.953 -12.434  0.00  0.00    +0.000 OA
ATOM     33  C   UNL     1      -4.919   6.786 -12.710  0.00  0.00    +0.000 C 
BRANCH  33  34
ATOM     34  O   UNL     1      -4.108   6.769 -13.810  0.00  0.00    +0.000 OA
BRANCH  34  35
ATOM     35  C   UNL     1      -4.344   5.700 -14.732  0.00  0.00    +0.000 C 
ATOM     36  H   UNL     1      -5.362   5.759 -15.128  0.00  0.00    +0.000 HD
ATOM     37  H   UNL     1      -3.611   5.731 -15.543  0.00  0.00    +0.000 HD
ATOM     38  H   UNL     1      -4.232   4.754 -14.194  0.00  0.00    +0.000 HD
ENDBRANCH  34  35
ENDBRANCH  33  34
ENDBRANCH  29  33
ENDBRANCH   2  29
TORSDOF 9
ENDMDL
MODEL 9
REMARK VINA RESULT:    -4.719     16.983     20.131
REMARK INTER + INTRA:          -7.730
REMARK INTER:                  -6.854
REMARK INTRA:                  -0.876
REMARK UNBOUND:                -0.803
REMARK  Name = 102861
REMARK  9 active torsions:
REMARK  status: ('A' for Active; 'I' for Inactive)
REMARK    1  A    between atoms: O_2  and  C_13
REMARK    2  A    between atoms: O_2  and  C_16
REMARK    3  A    between atoms: C_4  and  C_10
REMARK    4  A    between atoms: C_5  and  C_7
REMARK    5  A    between atoms: C_7  and  C_11
REMARK    6  A    between atoms: C_10  and  C_13
REMARK    7  A    between atoms: C_11  and  C_12
REMARK    8  A    between atoms: C_12  and  C_14
REMARK    9  A    between atoms: C_14  and  C_15
REMARK                            x       y       z     vdW  Elec       q    Type
REMARK                         _______ _______ _______ _____ _____    ______ ____
ROOT
ATOM      1  O   UNL     1     -11.787   4.890  -5.866  0.00  0.00    +0.000 OA
ATOM      2  C   UNL     1      -8.236   4.632  -5.919  0.00  0.00    +0.000 C 
ATOM      3  C   UNL     1      -9.466   5.530  -6.145  0.00  0.00    +0.000 C 
ATOM      4  C   UNL     1      -8.642   3.710  -4.764  0.00  0.00    +0.000 C 
ATOM      5  C   UNL     1     -10.113   3.390  -4.998  0.00  0.00    +0.000 C 
ATOM      6  C   UNL     1     -10.602   4.635  -5.691  0.00  0.00    +0.000 C 
ATOM      7  H   UNL     1      -7.346   5.196  -5.625  0.00  0.00    +0.000 HD
ATOM      8  H   UNL     1      -9.622   5.778  -7.200  0.00  0.00    +0.000 HD
ATOM      9  H   UNL     1      -8.032   2.804  -4.704  0.00  0.00    +0.000 HD
ATOM     10  H   UNL     1      -8.531   4.243  -3.811  0.00  0.00    +0.000 HD
ATOM     11  H   UNL     1     -10.239   2.534  -5.668  0.00  0.00    +0.000 HD
ATOM     12  H   UNL     1     -10.646   3.225  -4.060  0.00  0.00    +0.000 HD
ENDROOT
BRANCH   3  13
ATOM     13  C   UNL     1      -9.439   6.795  -5.299  0.00  0.00    +0.000 C 
ATOM     14  H   UNL     1      -8.452   6.933  -4.837  0.00  0.00    +0.000 HD
ATOM     15  H   UNL     1     -10.149   6.693  -4.468  0.00  0.00    +0.000 HD
BRANCH  13  16
ATOM     16  C   UNL     1      -9.803   8.032  -6.121  0.00  0.00    +0.000 C 
ATOM     17  H   UNL     1      -9.131   8.857  -5.857  0.00  0.00    +0.000 HD
ATOM     18  H   UNL     1     -10.822   8.363  -5.904  0.00  0.00    +0.000 HD
BRANCH  16  19
ATOM     19  C   UNL     1      -9.698   7.756  -7.623  0.00  0.00    +0.000 C 
ATOM     20  H   UNL     1      -8.664   7.495  -7.879  0.00  0.00    +0.000 HD
ATOM     21  H   UNL     1     -10.322   6.891  -7.880  0.00  0.00    +0.000 HD
BRANCH  19  22
ATOM     22  C   UNL     1     -10.142   8.966  -8.442  0.00  0.00    +0.000 C 
ATOM     23  H   UNL     1     -10.886   8.659  -9.187  0.00  0.00    +0.000 HD
ATOM     24  H   UNL     1      -9.288   9.382  -8.989  0.00  0.00    +0.000 HD
BRANCH  22  25
ATOM     25  C   UNL     1     -10.740  10.050  -7.557  0.00  0.00    +0.000 C 
ATOM     26  H   UNL     1     -10.731  11.019  -8.064  0.00  0.00    +0.000 HD
ATOM     27  H   UNL     1     -10.162  10.144  -6.633  0.00  0.00    +0.000 HD
ATOM     28  H   UNL     1     -11.774   9.810  -7.290  0.00  0.00    +0.000 HD
ENDBRANCH  22  25
ENDBRANCH  19  22
ENDBRANCH  16  19
ENDBRANCH  13  16
ENDBRANCH   3  13
BRANCH   2  29
ATOM     29  C   UNL     1      -7.884   3.833  -7.176  0.00  0.00    +0.000 C 
ATOM     30  H   UNL     1      -8.749   3.245  -7.506  0.00  0.00    +0.000 HD
ATOM     31  H   UNL     1      -7.064   3.136  -6.970  0.00  0.00    +0.000 HD
BRANCH  29  33
ATOM     32  O   UNL     1      -6.498   5.497  -8.282  0.00  0.00    +0.000 OA
ATOM     33  C   UNL     1      -7.449   4.728  -8.312  0.00  0.00    +0.000 C 
BRANCH  33  34
ATOM     34  O   UNL     1      -8.290   4.536  -9.370  0.00  0.00    +0.000 OA
BRANCH  34  35
ATOM     35  C   UNL     1      -9.082   3.345  -9.320  0.00  0.00    +0.000 C 
ATOM     36  H   UNL     1      -9.802   3.404  -8.497  0.00  0.00    +0.000 HD
ATOM     37  H   UNL     1      -9.596   3.190 -10.273  0.00  0.00    +0.000 HD
ATOM     38  H   UNL     1      -8.413   2.498  -9.140  0.00  0.00    +0.000 HD
ENDBRANCH  34  35
ENDBRANCH  33  34
ENDBRANCH  29  33
ENDBRANCH   2  29
TORSDOF 9
ENDMDL
MODEL 10
REMARK VINA RESULT:    -4.659     25.939     28.515
REMARK INTER + INTRA:          -7.641
REMARK INTER:                  -6.837
REMARK INTRA:                  -0.803
REMARK UNBOUND:                -0.803
REMARK  Name = 102861
REMARK  9 active torsions:
REMARK  status: ('A' for Active; 'I' for Inactive)
REMARK    1  A    between atoms: O_2  and  C_13
REMARK    2  A    between atoms: O_2  and  C_16
REMARK    3  A    between atoms: C_4  and  C_10
REMARK    4  A    between atoms: C_5  and  C_7
REMARK    5  A    between atoms: C_7  and  C_11
REMARK    6  A    between atoms: C_10  and  C_13
REMARK    7  A    between atoms: C_11  and  C_12
REMARK    8  A    between atoms: C_12  and  C_14
REMARK    9  A    between atoms: C_14  and  C_15
REMARK                            x       y       z     vdW  Elec       q    Type
REMARK                         _______ _______ _______ _____ _____    ______ ____
ROOT
ATOM      1  O   UNL     1      -5.950   8.539 -12.913  0.00  0.00    +0.000 OA
ATOM      2  C   UNL     1      -2.693   7.133 -13.218  0.00  0.00    +0.000 C 
ATOM      3  C   UNL     1      -3.709   7.843 -12.306  0.00  0.00    +0.000 C 
ATOM      4  C   UNL     1      -3.549   6.245 -14.127  0.00  0.00    +0.000 C 
ATOM      5  C   UNL     1      -4.800   7.060 -14.430  0.00  0.00    +0.000 C 
ATOM      6  C   UNL     1      -4.944   7.893 -13.183  0.00  0.00    +0.000 C 
ATOM      7  H   UNL     1      -1.993   6.500 -12.664  0.00  0.00    +0.000 HD
ATOM      8  H   UNL     1      -3.416   8.870 -12.062  0.00  0.00    +0.000 HD
ATOM      9  H   UNL     1      -3.031   5.940 -15.041  0.00  0.00    +0.000 HD
ATOM     10  H   UNL     1      -3.831   5.330 -13.590  0.00  0.00    +0.000 HD
ATOM     11  H   UNL     1      -4.653   7.723 -15.288  0.00  0.00    +0.000 HD
ATOM     12  H   UNL     1      -5.673   6.422 -14.581  0.00  0.00    +0.000 HD
ENDROOT
BRANCH   3  13
ATOM     13  C   UNL     1      -4.012   7.061 -11.036  0.00  0.00    +0.000 C 
ATOM     14  H   UNL     1      -4.276   6.022 -11.272  0.00  0.00    +0.000 HD
ATOM     15  H   UNL     1      -4.894   7.492 -10.544  0.00  0.00    +0.000 HD
BRANCH  13  16
ATOM     16  C   UNL     1      -2.832   7.087 -10.063  0.00  0.00    +0.000 C 
ATOM     17  H   UNL     1      -1.960   7.532 -10.558  0.00  0.00    +0.000 HD
ATOM     18  H   UNL     1      -2.549   6.074  -9.761  0.00  0.00    +0.000 HD
BRANCH  16  19
ATOM     19  C   UNL     1      -3.163   7.889  -8.803  0.00  0.00    +0.000 C 
ATOM     20  H   UNL     1      -4.209   7.717  -8.520  0.00  0.00    +0.000 HD
ATOM     21  H   UNL     1      -2.541   7.534  -7.971  0.00  0.00    +0.000 HD
BRANCH  19  22
ATOM     22  C   UNL     1      -2.926   9.383  -9.016  0.00  0.00    +0.000 C 
ATOM     23  H   UNL     1      -2.861   9.891  -8.047  0.00  0.00    +0.000 HD
ATOM     24  H   UNL     1      -3.771   9.822  -9.558  0.00  0.00    +0.000 HD
BRANCH  22  25
ATOM     25  C   UNL     1      -1.647   9.637  -9.800  0.00  0.00    +0.000 C 
ATOM     26  H   UNL     1      -0.768   9.322  -9.230  0.00  0.00    +0.000 HD
ATOM     27  H   UNL     1      -1.545  10.704 -10.021  0.00  0.00    +0.000 HD
ATOM     28  H   UNL     1      -1.656   9.092 -10.750  0.00  0.00    +0.000 HD
ENDBRANCH  22  25
ENDBRANCH  19  22
ENDBRANCH  16  19
ENDBRANCH  13  16
ENDBRANCH   3  13
BRANCH   2  29
ATOM     29  C   UNL     1      -1.868   8.135 -14.030  0.00  0.00    +0.000 C 
ATOM     30  H   UNL     1      -2.464   9.030 -14.243  0.00  0.00    +0.000 HD
ATOM     31  H   UNL     1      -1.568   7.697 -14.988  0.00  0.00    +0.000 HD
BRANCH  29  33
ATOM     32  O   UNL     1      -0.143   7.994 -12.322  0.00  0.00    +0.000 OA
ATOM     33  C   UNL     1      -0.613   8.554 -13.304  0.00  0.00    +0.000 C 
BRANCH  33  34
ATOM     34  O   UNL     1      -0.093   9.654 -13.923  0.00  0.00    +0.000 OA
BRANCH  34  35
ATOM     35  C   UNL     1      -0.589  10.914 -13.460  0.00  0.00    +0.000 C 
ATOM     36  H   UNL     1      -1.646  10.828 -13.189  0.00  0.00    +0.000 HD
ATOM     37  H   UNL     1       0.002  11.265 -12.609  0.00  0.00    +0.000 HD
ATOM     38  H   UNL     1      -0.494  11.638 -14.276  0.00  0.00    +0.000 HD
ENDBRANCH  34  35
ENDBRANCH  33  34
ENDBRANCH  29  33
ENDBRANCH   2  29
TORSDOF 9
ENDMDL
