MODEL 1
REMARK VINA RESULT:    -5.833      0.000      0.000
REMARK INTER + INTRA:          -7.159
REMARK INTER:                  -6.718
REMARK INTRA:                  -0.441
REMARK UNBOUND:                -0.474
REMARK  Name = 4763
REMARK  3 active torsions:
REMARK  status: ('A' for Active; 'I' for Inactive)
REMARK    1  A    between atoms: C_6  and  C_7
REMARK    2  A    between atoms: C_6  and  C_8
REMARK    3  A    between atoms: C_7  and  C_11
REMARK                            x       y       z     vdW  Elec       q    Type
REMARK                         _______ _______ _______ _____ _____    ______ ____
ROOT
ATOM      1  O   UNL     1      -5.184 -18.211   0.955  0.00  0.00    +0.000 OA
ATOM      2  O   UNL     1      -4.776 -16.105   5.242  0.00  0.00    +0.000 OA
ATOM      3  O   UNL     1      -8.158 -15.017   2.348  0.00  0.00    +0.000 OA
ATOM      4  N   UNL     1      -6.628 -16.586   1.664  0.00  0.00    +0.000 N 
ATOM      5  N   UNL     1      -6.431 -15.557   3.760  0.00  0.00    +0.000 N 
ATOM      6  C   UNL     1      -4.638 -17.102   3.039  0.00  0.00    +0.000 C 
ATOM      7  C   UNL     1      -5.498 -17.370   1.800  0.00  0.00    +0.000 C 
ATOM      8  C   UNL     1      -5.277 -16.230   4.122  0.00  0.00    +0.000 C 
ATOM      9  C   UNL     1      -7.137 -15.670   2.572  0.00  0.00    +0.000 C 
ATOM     10  H   UNL     1      -7.167 -16.718   0.812  0.00  0.00    +0.000 HD
ATOM     11  H   UNL     1      -6.824 -14.931   4.458  0.00  0.00    +0.000 HD
ENDROOT
BRANCH   6  12
ATOM     12  C   UNL     1      -3.349 -16.463   2.603  0.00  0.00    +0.000 A 
ATOM     13  C   UNL     1      -3.309 -15.096   2.358  0.00  0.00    +0.000 A 
ATOM     14  C   UNL     1      -2.212 -17.246   2.450  0.00  0.00    +0.000 A 
ATOM     15  C   UNL     1      -2.113 -14.503   1.954  0.00  0.00    +0.000 A 
ATOM     16  C   UNL     1      -1.016 -16.653   2.046  0.00  0.00    +0.000 A 
ATOM     17  C   UNL     1      -0.966 -15.280   1.798  0.00  0.00    +0.000 A 
ATOM     18  H   UNL     1      -4.190 -14.470   2.469  0.00  0.00    +0.000 HD
ATOM     19  H   UNL     1      -2.153 -18.313   2.621  0.00  0.00    +0.000 HD
ATOM     20  H   UNL     1      -2.075 -13.434   1.760  0.00  0.00    +0.000 HD
ATOM     21  H   UNL     1      -0.121 -17.257   1.925  0.00  0.00    +0.000 HD
ATOM     22  H   UNL     1      -0.035 -14.819   1.483  0.00  0.00    +0.000 HD
ENDBRANCH   6  12
BRANCH   6  23
ATOM     23  C   UNL     1      -4.323 -18.461   3.677  0.00  0.00    +0.000 C 
ATOM     24  H   UNL     1      -3.701 -18.367   4.578  0.00  0.00    +0.000 HD
ATOM     25  H   UNL     1      -3.816 -19.143   2.979  0.00  0.00    +0.000 HD
BRANCH  23  26
ATOM     26  C   UNL     1      -5.591 -19.178   4.086  0.00  0.00    +0.000 C 
ATOM     27  H   UNL     1      -6.152 -18.632   4.851  0.00  0.00    +0.000 HD
ATOM     28  H   UNL     1      -6.260 -19.369   3.241  0.00  0.00    +0.000 HD
ATOM     29  H   UNL     1      -5.338 -20.155   4.515  0.00  0.00    +0.000 HD
ENDBRANCH  23  26
ENDBRANCH   6  23
TORSDOF 3
ENDMDL
MODEL 2
REMARK VINA RESULT:    -5.821     27.112     28.612
REMARK INTER + INTRA:          -7.145
REMARK INTER:                  -6.895
REMARK INTRA:                  -0.251
REMARK UNBOUND:                -0.474
REMARK  Name = 4763
REMARK  3 active torsions:
REMARK  status: ('A' for Active; 'I' for Inactive)
REMARK    1  A    between atoms: C_6  and  C_7
REMARK    2  A    between atoms: C_6  and  C_8
REMARK    3  A    between atoms: C_7  and  C_11
REMARK                            x       y       z     vdW  Elec       q    Type
REMARK                         _______ _______ _______ _____ _____    ______ ____
ROOT
ATOM      1  O   UNL     1     -10.653  12.764   8.248  0.00  0.00    +0.000 OA
ATOM      2  O   UNL     1      -8.266   8.662   7.577  0.00  0.00    +0.000 OA
ATOM      3  O   UNL     1      -8.478  10.666  11.691  0.00  0.00    +0.000 OA
ATOM      4  N   UNL     1      -9.525  11.713   9.937  0.00  0.00    +0.000 N 
ATOM      5  N   UNL     1      -8.360   9.706   9.610  0.00  0.00    +0.000 N 
ATOM      6  C   UNL     1      -9.302  10.851   7.629  0.00  0.00    +0.000 C 
ATOM      7  C   UNL     1      -9.902  11.857   8.615  0.00  0.00    +0.000 C 
ATOM      8  C   UNL     1      -8.611   9.635   8.251  0.00  0.00    +0.000 C 
ATOM      9  C   UNL     1      -8.762  10.697  10.492  0.00  0.00    +0.000 C 
ATOM     10  H   UNL     1      -9.872  12.416  10.583  0.00  0.00    +0.000 HD
ATOM     11  H   UNL     1      -7.847   8.927  10.014  0.00  0.00    +0.000 HD
ENDROOT
BRANCH   6  12
ATOM     12  C   UNL     1      -8.318  11.567   6.747  0.00  0.00    +0.000 A 
ATOM     13  C   UNL     1      -8.196  11.197   5.414  0.00  0.00    +0.000 A 
ATOM     14  C   UNL     1      -7.543  12.592   7.274  0.00  0.00    +0.000 A 
ATOM     15  C   UNL     1      -7.283  11.862   4.595  0.00  0.00    +0.000 A 
ATOM     16  C   UNL     1      -6.630  13.257   6.456  0.00  0.00    +0.000 A 
ATOM     17  C   UNL     1      -6.500  12.891   5.115  0.00  0.00    +0.000 A 
ATOM     18  H   UNL     1      -8.791  10.395   4.987  0.00  0.00    +0.000 HD
ATOM     19  H   UNL     1      -7.575  12.945   8.297  0.00  0.00    +0.000 HD
ATOM     20  H   UNL     1      -7.181  11.576   3.551  0.00  0.00    +0.000 HD
ATOM     21  H   UNL     1      -6.020  14.060   6.860  0.00  0.00    +0.000 HD
ATOM     22  H   UNL     1      -5.789  13.409   4.479  0.00  0.00    +0.000 HD
ENDBRANCH   6  12
BRANCH   6  23
ATOM     23  C   UNL     1     -10.452  10.324   6.759  0.00  0.00    +0.000 C 
ATOM     24  H   UNL     1     -10.093   9.761   5.887  0.00  0.00    +0.000 HD
ATOM     25  H   UNL     1     -11.108  11.130   6.402  0.00  0.00    +0.000 HD
BRANCH  23  26
ATOM     26  C   UNL     1     -11.350   9.396   7.547  0.00  0.00    +0.000 C 
ATOM     27  H   UNL     1     -11.310   8.365   7.181  0.00  0.00    +0.000 HD
ATOM     28  H   UNL     1     -11.118   9.389   8.616  0.00  0.00    +0.000 HD
ATOM     29  H   UNL     1     -12.391   9.726   7.452  0.00  0.00    +0.000 HD
ENDBRANCH  23  26
ENDBRANCH   6  23
TORSDOF 3
ENDMDL
MODEL 3
REMARK VINA RESULT:    -5.780     27.426     29.338
REMARK INTER + INTRA:          -7.099
REMARK INTER:                  -6.578
REMARK INTRA:                  -0.521
REMARK UNBOUND:                -0.474
REMARK  Name = 4763
REMARK  3 active torsions:
REMARK  status: ('A' for Active; 'I' for Inactive)
REMARK    1  A    between atoms: C_6  and  C_7
REMARK    2  A    between atoms: C_6  and  C_8
REMARK    3  A    between atoms: C_7  and  C_11
REMARK                            x       y       z     vdW  Elec       q    Type
REMARK                         _______ _______ _______ _____ _____    ______ ____
ROOT
ATOM      1  O   UNL     1      -4.530   9.755 -13.067  0.00  0.00    +0.000 OA
ATOM      2  O   UNL     1      -0.097   8.038 -12.449  0.00  0.00    +0.000 OA
ATOM      3  O   UNL     1      -3.104   5.970 -15.219  0.00  0.00    +0.000 OA
ATOM      4  N   UNL     1      -3.801   7.847 -14.095  0.00  0.00    +0.000 N 
ATOM      5  N   UNL     1      -1.633   7.009 -13.796  0.00  0.00    +0.000 N 
ATOM      6  C   UNL     1      -2.349   8.928 -12.409  0.00  0.00    +0.000 C 
ATOM      7  C   UNL     1      -3.651   8.903 -13.216  0.00  0.00    +0.000 C 
ATOM      8  C   UNL     1      -1.249   7.974 -12.881  0.00  0.00    +0.000 C 
ATOM      9  C   UNL     1      -2.864   6.876 -14.418  0.00  0.00    +0.000 C 
ATOM     10  H   UNL     1      -4.689   7.794 -14.586  0.00  0.00    +0.000 HD
ATOM     11  H   UNL     1      -0.919   6.336 -14.065  0.00  0.00    +0.000 HD
ENDROOT
BRANCH   6  12
ATOM     12  C   UNL     1      -2.666   8.625 -10.971  0.00  0.00    +0.000 A 
ATOM     13  C   UNL     1      -2.615   9.644 -10.028  0.00  0.00    +0.000 A 
ATOM     14  C   UNL     1      -3.010   7.331 -10.602  0.00  0.00    +0.000 A 
ATOM     15  C   UNL     1      -2.909   9.363  -8.694  0.00  0.00    +0.000 A 
ATOM     16  C   UNL     1      -3.305   7.050  -9.268  0.00  0.00    +0.000 A 
ATOM     17  C   UNL     1      -3.254   8.067  -8.313  0.00  0.00    +0.000 A 
ATOM     18  H   UNL     1      -2.345  10.660 -10.299  0.00  0.00    +0.000 HD
ATOM     19  H   UNL     1      -3.077   6.482 -11.269  0.00  0.00    +0.000 HD
ATOM     20  H   UNL     1      -2.869  10.154  -7.950  0.00  0.00    +0.000 HD
ATOM     21  H   UNL     1      -3.575   6.041  -8.971  0.00  0.00    +0.000 HD
ATOM     22  H   UNL     1      -3.484   7.848  -7.275  0.00  0.00    +0.000 HD
ENDBRANCH   6  12
BRANCH   6  23
ATOM     23  C   UNL     1      -1.785  10.352 -12.500  0.00  0.00    +0.000 C 
ATOM     24  H   UNL     1      -0.873  10.480 -11.901  0.00  0.00    +0.000 HD
ATOM     25  H   UNL     1      -2.514  11.111 -12.183  0.00  0.00    +0.000 HD
BRANCH  23  26
ATOM     26  C   UNL     1      -1.431  10.709 -13.928  0.00  0.00    +0.000 C 
ATOM     27  H   UNL     1      -1.185   9.829 -14.530  0.00  0.00    +0.000 HD
ATOM     28  H   UNL     1      -2.229  11.260 -14.435  0.00  0.00    +0.000 HD
ATOM     29  H   UNL     1      -0.547  11.356 -13.935  0.00  0.00    +0.000 HD
ENDBRANCH  23  26
ENDBRANCH   6  23
TORSDOF 3
ENDMDL
MODEL 4
REMARK VINA RESULT:    -5.668     14.687     16.486
REMARK INTER + INTRA:          -6.970
REMARK INTER:                  -6.434
REMARK INTRA:                  -0.536
REMARK UNBOUND:                -0.474
REMARK  Name = 4763
REMARK  3 active torsions:
REMARK  status: ('A' for Active; 'I' for Inactive)
REMARK    1  A    between atoms: C_6  and  C_7
REMARK    2  A    between atoms: C_6  and  C_8
REMARK    3  A    between atoms: C_7  and  C_11
REMARK                            x       y       z     vdW  Elec       q    Type
REMARK                         _______ _______ _______ _____ _____    ______ ____
ROOT
ATOM      1  O   UNL     1      -9.853 -12.305  19.579  0.00  0.00    +0.000 OA
ATOM      2  O   UNL     1     -12.405 -14.250  16.017  0.00  0.00    +0.000 OA
ATOM      3  O   UNL     1      -9.061 -16.574  18.117  0.00  0.00    +0.000 OA
ATOM      4  N   UNL     1      -9.457 -14.419  18.800  0.00  0.00    +0.000 N 
ATOM      5  N   UNL     1     -10.705 -15.371  17.061  0.00  0.00    +0.000 N 
ATOM      6  C   UNL     1     -11.082 -12.987  17.605  0.00  0.00    +0.000 C 
ATOM      7  C   UNL     1     -10.093 -13.192  18.757  0.00  0.00    +0.000 C 
ATOM      8  C   UNL     1     -11.477 -14.245  16.828  0.00  0.00    +0.000 C 
ATOM      9  C   UNL     1      -9.693 -15.523  17.996  0.00  0.00    +0.000 C 
ATOM     10  H   UNL     1      -8.755 -14.535  19.526  0.00  0.00    +0.000 HD
ATOM     11  H   UNL     1     -10.927 -16.191  16.501  0.00  0.00    +0.000 HD
ENDROOT
BRANCH   6  12
ATOM     12  C   UNL     1     -10.502 -11.988  16.643  0.00  0.00    +0.000 A 
ATOM     13  C   UNL     1     -11.154 -10.780  16.432  0.00  0.00    +0.000 A 
ATOM     14  C   UNL     1      -9.319 -12.283  15.978  0.00  0.00    +0.000 A 
ATOM     15  C   UNL     1     -10.616  -9.853  15.540  0.00  0.00    +0.000 A 
ATOM     16  C   UNL     1      -8.780 -11.356  15.086  0.00  0.00    +0.000 A 
ATOM     17  C   UNL     1      -9.429 -10.140  14.866  0.00  0.00    +0.000 A 
ATOM     18  H   UNL     1     -12.082 -10.535  16.941  0.00  0.00    +0.000 HD
ATOM     19  H   UNL     1      -8.745 -13.194  16.084  0.00  0.00    +0.000 HD
ATOM     20  H   UNL     1     -11.122  -8.906  15.368  0.00  0.00    +0.000 HD
ATOM     21  H   UNL     1      -7.855 -11.578  14.562  0.00  0.00    +0.000 HD
ATOM     22  H   UNL     1      -9.009  -9.419  14.172  0.00  0.00    +0.000 HD
ENDBRANCH   6  12
BRANCH   6  23
ATOM     23  C   UNL     1     -12.367 -12.403  18.207  0.00  0.00    +0.000 C 
ATOM     24  H   UNL     1     -13.135 -12.209  17.445  0.00  0.00    +0.000 HD
ATOM     25  H   UNL     1     -12.184 -11.469  18.756  0.00  0.00    +0.000 HD
BRANCH  23  26
ATOM     26  C   UNL     1     -12.975 -13.350  19.219  0.00  0.00    +0.000 C 
ATOM     27  H   UNL     1     -12.671 -13.117  20.244  0.00  0.00    +0.000 HD
ATOM     28  H   UNL     1     -14.068 -13.365  19.180  0.00  0.00    +0.000 HD
ATOM     29  H   UNL     1     -12.638 -14.372  19.013  0.00  0.00    +0.000 HD
ENDBRANCH  23  26
ENDBRANCH   6  23
TORSDOF 3
ENDMDL
MODEL 5
REMARK VINA RESULT:    -5.635     23.734     25.326
REMARK INTER + INTRA:          -6.933
REMARK INTER:                  -6.590
REMARK INTRA:                  -0.342
REMARK UNBOUND:                -0.474
REMARK  Name = 4763
REMARK  3 active torsions:
REMARK  status: ('A' for Active; 'I' for Inactive)
REMARK    1  A    between atoms: C_6  and  C_7
REMARK    2  A    between atoms: C_6  and  C_8
REMARK    3  A    between atoms: C_7  and  C_11
REMARK                            x       y       z     vdW  Elec       q    Type
REMARK                         _______ _______ _______ _____ _____    ______ ____
ROOT
ATOM      1  O   UNL     1      -6.901   6.013  -7.524  0.00  0.00    +0.000 OA
ATOM      2  O   UNL     1     -11.107   4.930  -5.495  0.00  0.00    +0.000 OA
ATOM      3  O   UNL     1      -9.664   2.817  -9.295  0.00  0.00    +0.000 OA
ATOM      4  N   UNL     1      -8.320   4.451  -8.405  0.00  0.00    +0.000 N 
ATOM      5  N   UNL     1     -10.375   3.919  -7.413  0.00  0.00    +0.000 N 
ATOM      6  C   UNL     1      -9.082   5.815  -6.487  0.00  0.00    +0.000 C 
ATOM      7  C   UNL     1      -7.993   5.442  -7.498  0.00  0.00    +0.000 C 
ATOM      8  C   UNL     1     -10.271   4.855  -6.398  0.00  0.00    +0.000 C 
ATOM      9  C   UNL     1      -9.470   3.676  -8.434  0.00  0.00    +0.000 C 
ATOM     10  H   UNL     1      -7.624   4.245  -9.116  0.00  0.00    +0.000 HD
ATOM     11  H   UNL     1     -11.197   3.321  -7.389  0.00  0.00    +0.000 HD
ENDROOT
BRANCH   6  12
ATOM     12  C   UNL     1      -9.594   7.189  -6.814  0.00  0.00    +0.000 A 
ATOM     13  C   UNL     1      -9.869   8.082  -5.785  0.00  0.00    +0.000 A 
ATOM     14  C   UNL     1      -9.785   7.553  -8.140  0.00  0.00    +0.000 A 
ATOM     15  C   UNL     1     -10.344   9.357  -6.088  0.00  0.00    +0.000 A 
ATOM     16  C   UNL     1     -10.260   8.828  -8.444  0.00  0.00    +0.000 A 
ATOM     17  C   UNL     1     -10.540   9.732  -7.417  0.00  0.00    +0.000 A 
ATOM     18  H   UNL     1      -9.728   7.812  -4.742  0.00  0.00    +0.000 HD
ATOM     19  H   UNL     1      -9.595   6.924  -9.000  0.00  0.00    +0.000 HD
ATOM     20  H   UNL     1     -10.562  10.060  -5.289  0.00  0.00    +0.000 HD
ATOM     21  H   UNL     1     -10.412   9.121  -9.479  0.00  0.00    +0.000 HD
ATOM     22  H   UNL     1     -10.909  10.724  -7.654  0.00  0.00    +0.000 HD
ENDBRANCH   6  12
BRANCH   6  23
ATOM     23  C   UNL     1      -8.422   5.850  -5.101  0.00  0.00    +0.000 C 
ATOM     24  H   UNL     1      -9.080   6.286  -4.336  0.00  0.00    +0.000 HD
ATOM     25  H   UNL     1      -7.477   6.412  -5.103  0.00  0.00    +0.000 HD
BRANCH  23  26
ATOM     26  C   UNL     1      -8.060   4.458  -4.633  0.00  0.00    +0.000 C 
ATOM     27  H   UNL     1      -7.819   3.787  -5.464  0.00  0.00    +0.000 HD
ATOM     28  H   UNL     1      -7.219   4.453  -3.933  0.00  0.00    +0.000 HD
ATOM     29  H   UNL     1      -8.912   4.015  -4.105  0.00  0.00    +0.000 HD
ENDBRANCH  23  26
ENDBRANCH   6  23
TORSDOF 3
ENDMDL
MODEL 6
REMARK VINA RESULT:    -5.534     27.683     29.016
REMARK INTER + INTRA:          -6.817
REMARK INTER:                  -6.306
REMARK INTRA:                  -0.511
REMARK UNBOUND:                -0.474
REMARK  Name = 4763
REMARK  3 active torsions:
REMARK  status: ('A' for Active; 'I' for Inactive)
REMARK    1  A    between atoms: C_6  and  C_7
REMARK    2  A    between atoms: C_6  and  C_8
REMARK    3  A    between atoms: C_7  and  C_11
REMARK                            x       y       z     vdW  Elec       q    Type
REMARK                         _______ _______ _______ _____ _____    ______ ____
ROOT
ATOM      1  O   UNL     1     -10.523  12.612   9.044  0.00  0.00    +0.000 OA
ATOM      2  O   UNL     1      -7.085   9.281   9.305  0.00  0.00    +0.000 OA
ATOM      3  O   UNL     1      -7.274  12.769  12.270  0.00  0.00    +0.000 OA
ATOM      4  N   UNL     1      -8.865  12.683  10.617  0.00  0.00    +0.000 N 
ATOM      5  N   UNL     1      -7.186  11.055  10.747  0.00  0.00    +0.000 N 
ATOM      6  C   UNL     1      -8.746  10.979   8.829  0.00  0.00    +0.000 C 
ATOM      7  C   UNL     1      -9.474  12.149   9.497  0.00  0.00    +0.000 C 
ATOM      8  C   UNL     1      -7.612  10.345   9.638  0.00  0.00    +0.000 C 
ATOM      9  C   UNL     1      -7.739  12.211  11.274  0.00  0.00    +0.000 C 
ATOM     10  H   UNL     1      -9.313  13.499  11.026  0.00  0.00    +0.000 HD
ATOM     11  H   UNL     1      -6.393  10.666  11.251  0.00  0.00    +0.000 HD
ENDROOT
BRANCH   6  12
ATOM     12  C   UNL     1      -8.196  11.442   7.509  0.00  0.00    +0.000 A 
ATOM     13  C   UNL     1      -8.483  10.722   6.356  0.00  0.00    +0.000 A 
ATOM     14  C   UNL     1      -7.410  12.586   7.456  0.00  0.00    +0.000 A 
ATOM     15  C   UNL     1      -7.973  11.152   5.131  0.00  0.00    +0.000 A 
ATOM     16  C   UNL     1      -6.900  13.016   6.232  0.00  0.00    +0.000 A 
ATOM     17  C   UNL     1      -7.182  12.299   5.068  0.00  0.00    +0.000 A 
ATOM     18  H   UNL     1      -9.093   9.824   6.380  0.00  0.00    +0.000 HD
ATOM     19  H   UNL     1      -7.140  13.205   8.301  0.00  0.00    +0.000 HD
ATOM     20  H   UNL     1      -8.192  10.593   4.225  0.00  0.00    +0.000 HD
ATOM     21  H   UNL     1      -6.284  13.909   6.181  0.00  0.00    +0.000 HD
ATOM     22  H   UNL     1      -6.785  12.634   4.115  0.00  0.00    +0.000 HD
ENDBRANCH   6  12
BRANCH   6  23
ATOM     23  C   UNL     1      -9.789   9.882   8.572  0.00  0.00    +0.000 C 
ATOM     24  H   UNL     1      -9.364   9.016   8.046  0.00  0.00    +0.000 HD
ATOM     25  H   UNL     1     -10.646  10.250   7.991  0.00  0.00    +0.000 HD
BRANCH  23  26
ATOM     26  C   UNL     1     -10.374   9.370   9.870  0.00  0.00    +0.000 C 
ATOM     27  H   UNL     1      -9.730   9.580  10.730  0.00  0.00    +0.000 HD
ATOM     28  H   UNL     1     -11.367   9.781  10.076  0.00  0.00    +0.000 HD
ATOM     29  H   UNL     1     -10.487   8.282   9.816  0.00  0.00    +0.000 HD
ENDBRANCH  23  26
ENDBRANCH   6  23
TORSDOF 3
ENDMDL
MODEL 7
REMARK VINA RESULT:    -5.397     24.201     25.749
REMARK INTER + INTRA:          -6.659
REMARK INTER:                  -6.378
REMARK INTRA:                  -0.281
REMARK UNBOUND:                -0.474
REMARK  Name = 4763
REMARK  3 active torsions:
REMARK  status: ('A' for Active; 'I' for Inactive)
REMARK    1  A    between atoms: C_6  and  C_7
REMARK    2  A    between atoms: C_6  and  C_8
REMARK    3  A    between atoms: C_7  and  C_11
REMARK                            x       y       z     vdW  Elec       q    Type
REMARK                         _______ _______ _______ _____ _____    ______ ____
ROOT
ATOM      1  O   UNL     1     -11.487   5.363  -8.494  0.00  0.00    +0.000 OA
ATOM      2  O   UNL     1     -11.563   8.177  -4.614  0.00  0.00    +0.000 OA
ATOM      3  O   UNL     1     -10.174   9.748  -8.687  0.00  0.00    +0.000 OA
ATOM      4  N   UNL     1     -10.801   7.544  -8.549  0.00  0.00    +0.000 N 
ATOM      5  N   UNL     1     -10.841   8.921  -6.653  0.00  0.00    +0.000 N 
ATOM      6  C   UNL     1     -11.362   6.519  -6.368  0.00  0.00    +0.000 C 
ATOM      7  C   UNL     1     -11.240   6.410  -7.891  0.00  0.00    +0.000 C 
ATOM      8  C   UNL     1     -11.283   7.934  -5.789  0.00  0.00    +0.000 C 
ATOM      9  C   UNL     1     -10.571   8.800  -8.007  0.00  0.00    +0.000 C 
ATOM     10  H   UNL     1     -10.661   7.456  -9.551  0.00  0.00    +0.000 HD
ATOM     11  H   UNL     1     -10.729   9.849  -6.254  0.00  0.00    +0.000 HD
ENDROOT
BRANCH   6  12
ATOM     12  C   UNL     1     -10.288   5.678  -5.737  0.00  0.00    +0.000 A 
ATOM     13  C   UNL     1     -10.523   4.329  -5.500  0.00  0.00    +0.000 A 
ATOM     14  C   UNL     1      -9.072   6.258  -5.400  0.00  0.00    +0.000 A 
ATOM     15  C   UNL     1      -9.526   3.549  -4.914  0.00  0.00    +0.000 A 
ATOM     16  C   UNL     1      -8.075   5.477  -4.814  0.00  0.00    +0.000 A 
ATOM     17  C   UNL     1      -8.302   4.122  -4.571  0.00  0.00    +0.000 A 
ATOM     18  H   UNL     1     -11.469   3.861  -5.755  0.00  0.00    +0.000 HD
ATOM     19  H   UNL     1      -8.804   7.295  -5.551  0.00  0.00    +0.000 HD
ATOM     20  H   UNL     1      -9.703   2.494  -4.725  0.00  0.00    +0.000 HD
ATOM     21  H   UNL     1      -7.120   5.922  -4.548  0.00  0.00    +0.000 HD
ATOM     22  H   UNL     1      -7.526   3.515  -4.116  0.00  0.00    +0.000 HD
ENDBRANCH   6  12
BRANCH   6  23
ATOM     23  C   UNL     1     -12.731   5.945  -5.979  0.00  0.00    +0.000 C 
ATOM     24  H   UNL     1     -12.901   5.969  -4.894  0.00  0.00    +0.000 HD
ATOM     25  H   UNL     1     -12.863   4.910  -6.324  0.00  0.00    +0.000 HD
BRANCH  23  26
ATOM     26  C   UNL     1     -13.854   6.728  -6.622  0.00  0.00    +0.000 C 
ATOM     27  H   UNL     1     -13.969   6.498  -7.686  0.00  0.00    +0.000 HD
ATOM     28  H   UNL     1     -14.818   6.566  -6.129  0.00  0.00    +0.000 HD
ATOM     29  H   UNL     1     -13.640   7.801  -6.551  0.00  0.00    +0.000 HD
ENDBRANCH  23  26
ENDBRANCH   6  23
TORSDOF 3
ENDMDL
MODEL 8
REMARK VINA RESULT:    -5.388     19.370     21.607
REMARK INTER + INTRA:          -6.649
REMARK INTER:                  -6.157
REMARK INTRA:                  -0.492
REMARK UNBOUND:                -0.474
REMARK  Name = 4763
REMARK  3 active torsions:
REMARK  status: ('A' for Active; 'I' for Inactive)
REMARK    1  A    between atoms: C_6  and  C_7
REMARK    2  A    between atoms: C_6  and  C_8
REMARK    3  A    between atoms: C_7  and  C_11
REMARK                            x       y       z     vdW  Elec       q    Type
REMARK                         _______ _______ _______ _____ _____    ______ ____
ROOT
ATOM      1  O   UNL     1     -16.803  -8.788  16.823  0.00  0.00    +0.000 OA
ATOM      2  O   UNL     1     -15.976  -4.501  14.844  0.00  0.00    +0.000 OA
ATOM      3  O   UNL     1     -12.892  -6.521  17.565  0.00  0.00    +0.000 OA
ATOM      4  N   UNL     1     -14.878  -7.614  17.205  0.00  0.00    +0.000 N 
ATOM      5  N   UNL     1     -14.472  -5.519  16.236  0.00  0.00    +0.000 N 
ATOM      6  C   UNL     1     -16.708  -6.536  15.937  0.00  0.00    +0.000 C 
ATOM      7  C   UNL     1     -16.148  -7.754  16.677  0.00  0.00    +0.000 C 
ATOM      8  C   UNL     1     -15.701  -5.432  15.604  0.00  0.00    +0.000 C 
ATOM      9  C   UNL     1     -14.008  -6.546  17.043  0.00  0.00    +0.000 C 
ATOM     10  H   UNL     1     -14.529  -8.397  17.749  0.00  0.00    +0.000 HD
ATOM     11  H   UNL     1     -13.824  -4.755  16.064  0.00  0.00    +0.000 HD
ENDROOT
BRANCH   6  12
ATOM     12  C   UNL     1     -17.821  -5.943  16.755  0.00  0.00    +0.000 A 
ATOM     13  C   UNL     1     -19.141  -6.176  16.390  0.00  0.00    +0.000 A 
ATOM     14  C   UNL     1     -17.517  -5.170  17.869  0.00  0.00    +0.000 A 
ATOM     15  C   UNL     1     -20.173  -5.626  17.150  0.00  0.00    +0.000 A 
ATOM     16  C   UNL     1     -18.549  -4.620  18.628  0.00  0.00    +0.000 A 
ATOM     17  C   UNL     1     -19.878  -4.848  18.269  0.00  0.00    +0.000 A 
ATOM     18  H   UNL     1     -19.395  -6.774  15.520  0.00  0.00    +0.000 HD
ATOM     19  H   UNL     1     -16.521  -4.941  18.225  0.00  0.00    +0.000 HD
ATOM     20  H   UNL     1     -21.208  -5.803  16.869  0.00  0.00    +0.000 HD
ATOM     21  H   UNL     1     -18.321  -4.015  19.501  0.00  0.00    +0.000 HD
ATOM     22  H   UNL     1     -20.681  -4.420  18.861  0.00  0.00    +0.000 HD
ENDBRANCH   6  12
BRANCH   6  23
ATOM     23  C   UNL     1     -17.287  -7.037  14.607  0.00  0.00    +0.000 C 
ATOM     24  H   UNL     1     -17.775  -6.237  14.034  0.00  0.00    +0.000 HD
ATOM     25  H   UNL     1     -18.013  -7.850  14.748  0.00  0.00    +0.000 HD
BRANCH  23  26
ATOM     26  C   UNL     1     -16.204  -7.617  13.724  0.00  0.00    +0.000 C 
ATOM     27  H   UNL     1     -16.492  -8.577  13.284  0.00  0.00    +0.000 HD
ATOM     28  H   UNL     1     -15.913  -6.942  12.914  0.00  0.00    +0.000 HD
ATOM     29  H   UNL     1     -15.303  -7.800  14.321  0.00  0.00    +0.000 HD
ENDBRANCH  23  26
ENDBRANCH   6  23
TORSDOF 3
ENDMDL
MODEL 9
REMARK VINA RESULT:    -5.244     15.614     17.734
REMARK INTER + INTRA:          -6.484
REMARK INTER:                  -6.011
REMARK INTRA:                  -0.474
REMARK UNBOUND:                -0.474
REMARK  Name = 4763
REMARK  3 active torsions:
REMARK  status: ('A' for Active; 'I' for Inactive)
REMARK    1  A    between atoms: C_6  and  C_7
REMARK    2  A    between atoms: C_6  and  C_8
REMARK    3  A    between atoms: C_7  and  C_11
REMARK                            x       y       z     vdW  Elec       q    Type
REMARK                         _______ _______ _______ _____ _____    ______ ____
ROOT
ATOM      1  O   UNL     1     -10.281 -12.378  20.255  0.00  0.00    +0.000 OA
ATOM      2  O   UNL     1     -11.766 -14.439  16.190  0.00  0.00    +0.000 OA
ATOM      3  O   UNL     1      -7.729 -12.289  16.452  0.00  0.00    +0.000 OA
ATOM      4  N   UNL     1      -9.049 -12.317  18.330  0.00  0.00    +0.000 N 
ATOM      5  N   UNL     1      -9.772 -13.327  16.343  0.00  0.00    +0.000 N 
ATOM      6  C   UNL     1     -11.338 -13.253  18.258  0.00  0.00    +0.000 C 
ATOM      7  C   UNL     1     -10.188 -12.626  19.051  0.00  0.00    +0.000 C 
ATOM      8  C   UNL     1     -10.992 -13.743  16.850  0.00  0.00    +0.000 C 
ATOM      9  C   UNL     1      -8.782 -12.616  17.002  0.00  0.00    +0.000 C 
ATOM     10  H   UNL     1      -8.308 -11.844  18.840  0.00  0.00    +0.000 HD
ATOM     11  H   UNL     1      -9.567 -13.600  15.385  0.00  0.00    +0.000 HD
ENDROOT
BRANCH   6  12
ATOM     12  C   UNL     1     -12.458 -12.256  18.161  0.00  0.00    +0.000 A 
ATOM     13  C   UNL     1     -12.384 -11.230  17.226  0.00  0.00    +0.000 A 
ATOM     14  C   UNL     1     -13.555 -12.371  19.004  0.00  0.00    +0.000 A 
ATOM     15  C   UNL     1     -13.423 -10.305  17.135  0.00  0.00    +0.000 A 
ATOM     16  C   UNL     1     -14.594 -11.445  18.914  0.00  0.00    +0.000 A 
ATOM     17  C   UNL     1     -14.529 -10.411  17.978  0.00  0.00    +0.000 A 
ATOM     18  H   UNL     1     -11.532 -11.124  16.561  0.00  0.00    +0.000 HD
ATOM     19  H   UNL     1     -13.695 -13.136  19.756  0.00  0.00    +0.000 HD
ATOM     20  H   UNL     1     -13.371  -9.499  16.407  0.00  0.00    +0.000 HD
ATOM     21  H   UNL     1     -15.456 -11.528  19.569  0.00  0.00    +0.000 HD
ATOM     22  H   UNL     1     -15.338  -9.691  17.908  0.00  0.00    +0.000 HD
ENDBRANCH   6  12
BRANCH   6  23
ATOM     23  C   UNL     1     -11.829 -14.470  19.054  0.00  0.00    +0.000 C 
ATOM     24  H   UNL     1     -12.703 -14.948  18.591  0.00  0.00    +0.000 HD
ATOM     25  H   UNL     1     -12.086 -14.214  20.091  0.00  0.00    +0.000 HD
BRANCH  23  26
ATOM     26  C   UNL     1     -10.749 -15.525  19.158  0.00  0.00    +0.000 C 
ATOM     27  H   UNL     1     -10.805 -16.262  18.351  0.00  0.00    +0.000 HD
ATOM     28  H   UNL     1      -9.741 -15.099  19.165  0.00  0.00    +0.000 HD
ATOM     29  H   UNL     1     -10.865 -16.076  20.099  0.00  0.00    +0.000 HD
ENDBRANCH  23  26
ENDBRANCH   6  23
TORSDOF 3
ENDMDL
MODEL 10
REMARK VINA RESULT:    -5.195     18.559     20.542
REMARK INTER + INTRA:          -6.428
REMARK INTER:                  -6.024
REMARK INTRA:                  -0.403
REMARK UNBOUND:                -0.474
REMARK  Name = 4763
REMARK  3 active torsions:
REMARK  status: ('A' for Active; 'I' for Inactive)
REMARK    1  A    between atoms: C_6  and  C_7
REMARK    2  A    between atoms: C_6  and  C_8
REMARK    3  A    between atoms: C_7  and  C_11
REMARK                            x       y       z     vdW  Elec       q    Type
REMARK                         _______ _______ _______ _____ _____    ______ ____
ROOT
ATOM      1  O   UNL     1     -17.082  -8.257  16.538  0.00  0.00    +0.000 OA
ATOM      2  O   UNL     1     -14.038  -4.759  15.324  0.00  0.00    +0.000 OA
ATOM      3  O   UNL     1     -13.149  -9.149  14.364  0.00  0.00    +0.000 OA
ATOM      4  N   UNL     1     -15.093  -8.673  15.488  0.00  0.00    +0.000 N 
ATOM      5  N   UNL     1     -13.606  -6.963  14.892  0.00  0.00    +0.000 N 
ATOM      6  C   UNL     1     -15.585  -6.373  16.256  0.00  0.00    +0.000 C 
ATOM      7  C   UNL     1     -16.006  -7.838  16.105  0.00  0.00    +0.000 C 
ATOM      8  C   UNL     1     -14.358  -5.942  15.447  0.00  0.00    +0.000 C 
ATOM      9  C   UNL     1     -13.895  -8.319  14.886  0.00  0.00    +0.000 C 
ATOM     10  H   UNL     1     -15.344  -9.657  15.442  0.00  0.00    +0.000 HD
ATOM     11  H   UNL     1     -12.758  -6.683  14.406  0.00  0.00    +0.000 HD
ENDROOT
BRANCH   6  12
ATOM     12  C   UNL     1     -15.327  -6.092  17.709  0.00  0.00    +0.000 A 
ATOM     13  C   UNL     1     -16.339  -5.551  18.493  0.00  0.00    +0.000 A 
ATOM     14  C   UNL     1     -14.082  -6.379  18.254  0.00  0.00    +0.000 A 
ATOM     15  C   UNL     1     -16.100  -5.290  19.842  0.00  0.00    +0.000 A 
ATOM     16  C   UNL     1     -13.843  -6.118  19.603  0.00  0.00    +0.000 A 
ATOM     17  C   UNL     1     -14.853  -5.574  20.398  0.00  0.00    +0.000 A 
ATOM     18  H   UNL     1     -17.317  -5.318  18.082  0.00  0.00    +0.000 HD
ATOM     19  H   UNL     1     -13.242  -6.802  17.719  0.00  0.00    +0.000 HD
ATOM     20  H   UNL     1     -16.886  -4.866  20.461  0.00  0.00    +0.000 HD
ATOM     21  H   UNL     1     -12.873  -6.339  20.037  0.00  0.00    +0.000 HD
ATOM     22  H   UNL     1     -14.667  -5.371  21.448  0.00  0.00    +0.000 HD
ENDBRANCH   6  12
BRANCH   6  23
ATOM     23  C   UNL     1     -16.764  -5.510  15.787  0.00  0.00    +0.000 C 
ATOM     24  H   UNL     1     -16.574  -4.436  15.920  0.00  0.00    +0.000 HD
ATOM     25  H   UNL     1     -17.698  -5.761  16.308  0.00  0.00    +0.000 HD
BRANCH  23  26
ATOM     26  C   UNL     1     -17.053  -5.731  14.318  0.00  0.00    +0.000 C 
ATOM     27  H   UNL     1     -18.098  -5.997  14.133  0.00  0.00    +0.000 HD
ATOM     28  H   UNL     1     -16.806  -4.860  13.703  0.00  0.00    +0.000 HD
ATOM     29  H   UNL     1     -16.443  -6.563  13.946  0.00  0.00    +0.000 HD
ENDBRANCH  23  26
ENDBRANCH   6  23
TORSDOF 3
ENDMDL
