MODEL 1
REMARK VINA RESULT:    -4.047      0.000      0.000
REMARK INTER + INTRA:          -5.544
REMARK INTER:                  -5.288
REMARK INTRA:                  -0.256
REMARK UNBOUND:                -0.196
REMARK  Name = 8130
REMARK  6 active torsions:
REMARK  status: ('A' for Active; 'I' for Inactive)
REMARK    1  A    between atoms: C_2  and  C_3
REMARK    2  A    between atoms: C_2  and  C_4
REMARK    3  A    between atoms: C_3  and  C_5
REMARK    4  A    between atoms: C_4  and  C_6
REMARK    5  A    between atoms: C_5  and  C_7
REMARK    6  A    between atoms: C_6  and  C_8
REMARK                            x       y       z     vdW  Elec       q    Type
REMARK                         _______ _______ _______ _____ _____    ______ ____
ROOT
ATOM      1  C   UNL     1      -2.729   9.501 -10.054  0.00  0.00    +0.000 C 
ATOM      2  H   UNL     1      -3.041   8.890 -10.909  0.00  0.00    +0.000 HD
ATOM      3  H   UNL     1      -3.423  10.349  -9.992  0.00  0.00    +0.000 HD
ENDROOT
BRANCH   1   4
ATOM      4  C   UNL     1      -2.814   8.675  -8.769  0.00  0.00    +0.000 C 
ATOM      5  H   UNL     1      -3.465   9.181  -8.047  0.00  0.00    +0.000 HD
ATOM      6  H   UNL     1      -1.818   8.604  -8.314  0.00  0.00    +0.000 HD
BRANCH   4   7
ATOM      7  C   UNL     1      -3.353   7.271  -9.046  0.00  0.00    +0.000 C 
ATOM      8  H   UNL     1      -3.053   6.591  -8.240  0.00  0.00    +0.000 HD
ATOM      9  H   UNL     1      -4.449   7.289  -9.064  0.00  0.00    +0.000 HD
BRANCH   7  10
ATOM     10  C   UNL     1      -2.844   6.730 -10.373  0.00  0.00    +0.000 C 
ATOM     11  H   UNL     1      -2.854   7.519 -11.132  0.00  0.00    +0.000 HD
ATOM     12  H   UNL     1      -3.473   5.908 -10.729  0.00  0.00    +0.000 HD
ATOM     13  H   UNL     1      -1.817   6.363 -10.279  0.00  0.00    +0.000 HD
ENDBRANCH   7  10
ENDBRANCH   4   7
ENDBRANCH   1   4
BRANCH   1  14
ATOM     14  C   UNL     1      -1.308  10.021 -10.287  0.00  0.00    +0.000 C 
ATOM     15  H   UNL     1      -0.593   9.375  -9.761  0.00  0.00    +0.000 HD
ATOM     16  H   UNL     1      -1.212  11.020  -9.841  0.00  0.00    +0.000 HD
BRANCH  14  17
ATOM     17  C   UNL     1      -0.949  10.087 -11.768  0.00  0.00    +0.000 C 
ATOM     18  H   UNL     1      -0.257  10.912 -11.963  0.00  0.00    +0.000 HD
ATOM     19  H   UNL     1      -1.848  10.239 -12.373  0.00  0.00    +0.000 HD
BRANCH  17  21
ATOM     20  O   UNL     1      -0.777   8.076 -13.085  0.00  0.00    +0.000 OA
ATOM     21  C   UNL     1      -0.292   8.813 -12.232  0.00  0.00    +0.000 C 
ATOM     22  H   UNL     1       0.665   8.564 -11.741  0.00  0.00    +0.000 HD
ENDBRANCH  17  21
ENDBRANCH  14  17
ENDBRANCH   1  14
TORSDOF 6
ENDMDL
MODEL 2
REMARK VINA RESULT:    -3.970      1.844      2.962
REMARK INTER + INTRA:          -5.442
REMARK INTER:                  -5.140
REMARK INTRA:                  -0.302
REMARK UNBOUND:                -0.196
REMARK  Name = 8130
REMARK  6 active torsions:
REMARK  status: ('A' for Active; 'I' for Inactive)
REMARK    1  A    between atoms: C_2  and  C_3
REMARK    2  A    between atoms: C_2  and  C_4
REMARK    3  A    between atoms: C_3  and  C_5
REMARK    4  A    between atoms: C_4  and  C_6
REMARK    5  A    between atoms: C_5  and  C_7
REMARK    6  A    between atoms: C_6  and  C_8
REMARK                            x       y       z     vdW  Elec       q    Type
REMARK                         _______ _______ _______ _____ _____    ______ ____
ROOT
ATOM      1  C   UNL     1      -3.047   7.029  -9.842  0.00  0.00    +0.000 C 
ATOM      2  H   UNL     1      -2.532   6.118  -9.514  0.00  0.00    +0.000 HD
ATOM      3  H   UNL     1      -2.434   7.480 -10.632  0.00  0.00    +0.000 HD
ENDROOT
BRANCH   1   4
ATOM      4  C   UNL     1      -4.424   6.670 -10.405  0.00  0.00    +0.000 C 
ATOM      5  H   UNL     1      -5.205   7.152  -9.805  0.00  0.00    +0.000 HD
ATOM      6  H   UNL     1      -4.578   5.586 -10.329  0.00  0.00    +0.000 HD
BRANCH   4   7
ATOM      7  C   UNL     1      -4.560   7.107 -11.864  0.00  0.00    +0.000 C 
ATOM      8  H   UNL     1      -5.370   6.550 -12.346  0.00  0.00    +0.000 HD
ATOM      9  H   UNL     1      -4.823   8.171 -11.911  0.00  0.00    +0.000 HD
BRANCH   7  10
ATOM     10  C   UNL     1      -3.268   6.881 -12.635  0.00  0.00    +0.000 C 
ATOM     11  H   UNL     1      -3.352   7.297 -13.645  0.00  0.00    +0.000 HD
ATOM     12  H   UNL     1      -3.048   5.812 -12.725  0.00  0.00    +0.000 HD
ATOM     13  H   UNL     1      -2.423   7.367 -12.138  0.00  0.00    +0.000 HD
ENDBRANCH   7  10
ENDBRANCH   4   7
ENDBRANCH   1   4
BRANCH   1  14
ATOM     14  C   UNL     1      -3.165   8.003  -8.667  0.00  0.00    +0.000 C 
ATOM     15  H   UNL     1      -2.518   7.665  -7.848  0.00  0.00    +0.000 HD
ATOM     16  H   UNL     1      -4.192   7.982  -8.282  0.00  0.00    +0.000 HD
BRANCH  14  17
ATOM     17  C   UNL     1      -2.796   9.431  -9.057  0.00  0.00    +0.000 C 
ATOM     18  H   UNL     1      -2.256   9.928  -8.246  0.00  0.00    +0.000 HD
ATOM     19  H   UNL     1      -3.698  10.012  -9.279  0.00  0.00    +0.000 HD
BRANCH  17  21
ATOM     20  O   UNL     1      -0.933  10.181 -10.389  0.00  0.00    +0.000 OA
ATOM     21  C   UNL     1      -1.919   9.458 -10.281  0.00  0.00    +0.000 C 
ATOM     22  H   UNL     1      -2.225   8.786 -11.102  0.00  0.00    +0.000 HD
ENDBRANCH  17  21
ENDBRANCH  14  17
ENDBRANCH   1  14
TORSDOF 6
ENDMDL
MODEL 3
REMARK VINA RESULT:    -3.814     12.924     13.802
REMARK INTER + INTRA:          -5.236
REMARK INTER:                  -4.947
REMARK INTRA:                  -0.290
REMARK UNBOUND:                -0.196
REMARK  Name = 8130
REMARK  6 active torsions:
REMARK  status: ('A' for Active; 'I' for Inactive)
REMARK    1  A    between atoms: C_2  and  C_3
REMARK    2  A    between atoms: C_2  and  C_4
REMARK    3  A    between atoms: C_3  and  C_5
REMARK    4  A    between atoms: C_4  and  C_6
REMARK    5  A    between atoms: C_5  and  C_7
REMARK    6  A    between atoms: C_6  and  C_8
REMARK                            x       y       z     vdW  Elec       q    Type
REMARK                         _______ _______ _______ _____ _____    ______ ____
ROOT
ATOM      1  C   UNL     1       6.133  11.678   0.046  0.00  0.00    +0.000 C 
ATOM      2  H   UNL     1       6.552  11.099   0.878  0.00  0.00    +0.000 HD
ATOM      3  H   UNL     1       6.512  12.703   0.143  0.00  0.00    +0.000 HD
ENDROOT
BRANCH   1   4
ATOM      4  C   UNL     1       6.600  11.083  -1.284  0.00  0.00    +0.000 C 
ATOM      5  H   UNL     1       6.789  11.889  -2.003  0.00  0.00    +0.000 HD
ATOM      6  H   UNL     1       5.803  10.455  -1.703  0.00  0.00    +0.000 HD
BRANCH   4   7
ATOM      7  C   UNL     1       7.870  10.250  -1.106  0.00  0.00    +0.000 C 
ATOM      8  H   UNL     1       8.030   9.622  -1.989  0.00  0.00    +0.000 HD
ATOM      9  H   UNL     1       8.740  10.911  -1.016  0.00  0.00    +0.000 HD
BRANCH   7  10
ATOM     10  C   UNL     1       7.787   9.366   0.129  0.00  0.00    +0.000 C 
ATOM     11  H   UNL     1       7.888   9.972   1.036  0.00  0.00    +0.000 HD
ATOM     12  H   UNL     1       8.586   8.618   0.130  0.00  0.00    +0.000 HD
ATOM     13  H   UNL     1       6.826   8.845   0.176  0.00  0.00    +0.000 HD
ENDBRANCH   7  10
ENDBRANCH   4   7
ENDBRANCH   1   4
BRANCH   1  14
ATOM     14  C   UNL     1       4.606  11.686   0.145  0.00  0.00    +0.000 C 
ATOM     15  H   UNL     1       4.196  12.382  -0.599  0.00  0.00    +0.000 HD
ATOM     16  H   UNL     1       4.310  12.073   1.129  0.00  0.00    +0.000 HD
BRANCH  14  17
ATOM     17  C   UNL     1       4.002  10.301  -0.060  0.00  0.00    +0.000 C 
ATOM     18  H   UNL     1       4.643   9.689  -0.702  0.00  0.00    +0.000 HD
ATOM     19  H   UNL     1       3.016  10.379  -0.530  0.00  0.00    +0.000 HD
BRANCH  17  21
ATOM     20  O   UNL     1       3.175  10.020   2.186  0.00  0.00    +0.000 OA
ATOM     21  C   UNL     1       3.832   9.576   1.249  0.00  0.00    +0.000 C 
ATOM     22  H   UNL     1       4.353   8.606   1.328  0.00  0.00    +0.000 HD
ENDBRANCH  17  21
ENDBRANCH  14  17
ENDBRANCH   1  14
TORSDOF 6
ENDMDL
MODEL 4
REMARK VINA RESULT:    -3.811     26.490     27.150
REMARK INTER + INTRA:          -5.233
REMARK INTER:                  -5.104
REMARK INTRA:                  -0.129
REMARK UNBOUND:                -0.196
REMARK  Name = 8130
REMARK  6 active torsions:
REMARK  status: ('A' for Active; 'I' for Inactive)
REMARK    1  A    between atoms: C_2  and  C_3
REMARK    2  A    between atoms: C_2  and  C_4
REMARK    3  A    between atoms: C_3  and  C_5
REMARK    4  A    between atoms: C_4  and  C_6
REMARK    5  A    between atoms: C_5  and  C_7
REMARK    6  A    between atoms: C_6  and  C_8
REMARK                            x       y       z     vdW  Elec       q    Type
REMARK                         _______ _______ _______ _____ _____    ______ ____
ROOT
ATOM      1  C   UNL     1     -21.536  -2.639   5.546  0.00  0.00    +0.000 C 
ATOM      2  H   UNL     1     -21.698  -2.333   6.586  0.00  0.00    +0.000 HD
ATOM      3  H   UNL     1     -22.523  -2.846   5.113  0.00  0.00    +0.000 HD
ENDROOT
BRANCH   1   4
ATOM      4  C   UNL     1     -20.866  -1.502   4.771  0.00  0.00    +0.000 C 
ATOM      5  H   UNL     1     -21.549  -1.128   4.000  0.00  0.00    +0.000 HD
ATOM      6  H   UNL     1     -19.976  -1.886   4.258  0.00  0.00    +0.000 HD
BRANCH   4   7
ATOM      7  C   UNL     1     -20.469  -0.355   5.700  0.00  0.00    +0.000 C 
ATOM      8  H   UNL     1     -19.468   0.006   5.439  0.00  0.00    +0.000 HD
ATOM      9  H   UNL     1     -21.161   0.486   5.571  0.00  0.00    +0.000 HD
BRANCH   7  10
ATOM     10  C   UNL     1     -20.481  -0.789   7.158  0.00  0.00    +0.000 C 
ATOM     11  H   UNL     1     -21.206  -0.195   7.724  0.00  0.00    +0.000 HD
ATOM     12  H   UNL     1     -19.496  -0.650   7.616  0.00  0.00    +0.000 HD
ATOM     13  H   UNL     1     -20.759  -1.843   7.251  0.00  0.00    +0.000 HD
ENDBRANCH   7  10
ENDBRANCH   4   7
ENDBRANCH   1   4
BRANCH   1  14
ATOM     14  C   UNL     1     -20.686  -3.911   5.511  0.00  0.00    +0.000 C 
ATOM     15  H   UNL     1     -21.241  -4.733   5.983  0.00  0.00    +0.000 HD
ATOM     16  H   UNL     1     -19.782  -3.758   6.115  0.00  0.00    +0.000 HD
BRANCH  14  17
ATOM     17  C   UNL     1     -20.290  -4.307   4.092  0.00  0.00    +0.000 C 
ATOM     18  H   UNL     1     -20.102  -3.420   3.480  0.00  0.00    +0.000 HD
ATOM     19  H   UNL     1     -21.088  -4.890   3.621  0.00  0.00    +0.000 HD
BRANCH  17  21
ATOM     20  O   UNL     1     -18.513  -5.581   5.104  0.00  0.00    +0.000 OA
ATOM     21  C   UNL     1     -19.040  -5.148   4.085  0.00  0.00    +0.000 C 
ATOM     22  H   UNL     1     -18.605  -5.346   3.089  0.00  0.00    +0.000 HD
ENDBRANCH  17  21
ENDBRANCH  14  17
ENDBRANCH   1  14
TORSDOF 6
ENDMDL
MODEL 5
REMARK VINA RESULT:    -3.797     13.198     14.001
REMARK INTER + INTRA:          -5.214
REMARK INTER:                  -5.055
REMARK INTRA:                  -0.159
REMARK UNBOUND:                -0.196
REMARK  Name = 8130
REMARK  6 active torsions:
REMARK  status: ('A' for Active; 'I' for Inactive)
REMARK    1  A    between atoms: C_2  and  C_3
REMARK    2  A    between atoms: C_2  and  C_4
REMARK    3  A    between atoms: C_3  and  C_5
REMARK    4  A    between atoms: C_4  and  C_6
REMARK    5  A    between atoms: C_5  and  C_7
REMARK    6  A    between atoms: C_6  and  C_8
REMARK                            x       y       z     vdW  Elec       q    Type
REMARK                         _______ _______ _______ _____ _____    ______ ____
ROOT
ATOM      1  C   UNL     1       4.689   8.791   1.437  0.00  0.00    +0.000 C 
ATOM      2  H   UNL     1       5.607   9.391   1.442  0.00  0.00    +0.000 HD
ATOM      3  H   UNL     1       4.986   7.749   1.265  0.00  0.00    +0.000 HD
ENDROOT
BRANCH   1   4
ATOM      4  C   UNL     1       3.988   8.907   2.791  0.00  0.00    +0.000 C 
ATOM      5  H   UNL     1       3.035   8.364   2.761  0.00  0.00    +0.000 HD
ATOM      6  H   UNL     1       3.755   9.960   2.993  0.00  0.00    +0.000 HD
BRANCH   4   7
ATOM      7  C   UNL     1       4.857   8.348   3.918  0.00  0.00    +0.000 C 
ATOM      8  H   UNL     1       5.815   8.880   3.948  0.00  0.00    +0.000 HD
ATOM      9  H   UNL     1       4.365   8.510   4.884  0.00  0.00    +0.000 HD
BRANCH   7  10
ATOM     10  C   UNL     1       5.117   6.861   3.735  0.00  0.00    +0.000 C 
ATOM     11  H   UNL     1       4.714   6.299   4.585  0.00  0.00    +0.000 HD
ATOM     12  H   UNL     1       6.190   6.655   3.670  0.00  0.00    +0.000 HD
ATOM     13  H   UNL     1       4.638   6.487   2.825  0.00  0.00    +0.000 HD
ENDBRANCH   7  10
ENDBRANCH   4   7
ENDBRANCH   1   4
BRANCH   1  14
ATOM     14  C   UNL     1       3.779   9.257   0.298  0.00  0.00    +0.000 C 
ATOM     15  H   UNL     1       2.784   9.491   0.699  0.00  0.00    +0.000 HD
ATOM     16  H   UNL     1       3.642   8.433  -0.415  0.00  0.00    +0.000 HD
BRANCH  14  17
ATOM     17  C   UNL     1       4.337  10.474  -0.432  0.00  0.00    +0.000 C 
ATOM     18  H   UNL     1       4.078  10.442  -1.495  0.00  0.00    +0.000 HD
ATOM     19  H   UNL     1       5.428  10.507  -0.342  0.00  0.00    +0.000 HD
BRANCH  17  21
ATOM     20  O   UNL     1       2.987  11.793   1.066  0.00  0.00    +0.000 OA
ATOM     21  C   UNL     1       3.790  11.757   0.139  0.00  0.00    +0.000 C 
ATOM     22  H   UNL     1       4.147  12.683  -0.343  0.00  0.00    +0.000 HD
ENDBRANCH  17  21
ENDBRANCH  14  17
ENDBRANCH   1  14
TORSDOF 6
ENDMDL
MODEL 6
REMARK VINA RESULT:    -3.780      1.244      3.398
REMARK INTER + INTRA:          -5.192
REMARK INTER:                  -4.847
REMARK INTRA:                  -0.345
REMARK UNBOUND:                -0.196
REMARK  Name = 8130
REMARK  6 active torsions:
REMARK  status: ('A' for Active; 'I' for Inactive)
REMARK    1  A    between atoms: C_2  and  C_3
REMARK    2  A    between atoms: C_2  and  C_4
REMARK    3  A    between atoms: C_3  and  C_5
REMARK    4  A    between atoms: C_4  and  C_6
REMARK    5  A    between atoms: C_5  and  C_7
REMARK    6  A    between atoms: C_6  and  C_8
REMARK                            x       y       z     vdW  Elec       q    Type
REMARK                         _______ _______ _______ _____ _____    ______ ____
ROOT
ATOM      1  C   UNL     1      -2.717   9.678 -10.002  0.00  0.00    +0.000 C 
ATOM      2  H   UNL     1      -3.233  10.614  -9.759  0.00  0.00    +0.000 HD
ATOM      3  H   UNL     1      -3.207   9.261 -10.891  0.00  0.00    +0.000 HD
ENDROOT
BRANCH   1   4
ATOM      4  C   UNL     1      -1.247   9.963 -10.314  0.00  0.00    +0.000 C 
ATOM      5  H   UNL     1      -0.611   9.238  -9.792  0.00  0.00    +0.000 HD
ATOM      6  H   UNL     1      -0.980  10.959  -9.938  0.00  0.00    +0.000 HD
BRANCH   4   7
ATOM      7  C   UNL     1      -0.973   9.892 -11.817  0.00  0.00    +0.000 C 
ATOM      8  H   UNL     1      -1.896  10.090 -12.373  0.00  0.00    +0.000 HD
ATOM      9  H   UNL     1      -0.250  10.666 -12.101  0.00  0.00    +0.000 HD
BRANCH   7  10
ATOM     10  C   UNL     1      -0.428   8.530 -12.219  0.00  0.00    +0.000 C 
ATOM     11  H   UNL     1      -1.129   7.741 -11.930  0.00  0.00    +0.000 HD
ATOM     12  H   UNL     1       0.530   8.331 -11.728  0.00  0.00    +0.000 HD
ATOM     13  H   UNL     1      -0.279   8.471 -13.302  0.00  0.00    +0.000 HD
ENDBRANCH   7  10
ENDBRANCH   4   7
ENDBRANCH   1   4
BRANCH   1  14
ATOM     14  C   UNL     1      -2.857   8.697  -8.835  0.00  0.00    +0.000 C 
ATOM     15  H   UNL     1      -3.656   9.039  -8.165  0.00  0.00    +0.000 HD
ATOM     16  H   UNL     1      -1.931   8.704  -8.245  0.00  0.00    +0.000 HD
BRANCH  14  17
ATOM     17  C   UNL     1      -3.151   7.275  -9.303  0.00  0.00    +0.000 C 
ATOM     18  H   UNL     1      -3.820   6.766  -8.602  0.00  0.00    +0.000 HD
ATOM     19  H   UNL     1      -2.224   6.697  -9.378  0.00  0.00    +0.000 HD
BRANCH  17  21
ATOM     20  O   UNL     1      -3.356   6.662 -11.624  0.00  0.00    +0.000 OA
ATOM     21  C   UNL     1      -3.810   7.267 -10.658  0.00  0.00    +0.000 C 
ATOM     22  H   UNL     1      -4.737   7.860 -10.740  0.00  0.00    +0.000 HD
ENDBRANCH  17  21
ENDBRANCH  14  17
ENDBRANCH   1  14
TORSDOF 6
ENDMDL
MODEL 7
REMARK VINA RESULT:    -3.723     13.108     14.036
REMARK INTER + INTRA:          -5.117
REMARK INTER:                  -4.822
REMARK INTRA:                  -0.295
REMARK UNBOUND:                -0.196
REMARK  Name = 8130
REMARK  6 active torsions:
REMARK  status: ('A' for Active; 'I' for Inactive)
REMARK    1  A    between atoms: C_2  and  C_3
REMARK    2  A    between atoms: C_2  and  C_4
REMARK    3  A    between atoms: C_3  and  C_5
REMARK    4  A    between atoms: C_4  and  C_6
REMARK    5  A    between atoms: C_5  and  C_7
REMARK    6  A    between atoms: C_6  and  C_8
REMARK                            x       y       z     vdW  Elec       q    Type
REMARK                         _______ _______ _______ _____ _____    ______ ____
ROOT
ATOM      1  C   UNL     1       6.480   8.111   1.012  0.00  0.00    +0.000 C 
ATOM      2  H   UNL     1       5.996   7.136   0.881  0.00  0.00    +0.000 HD
ATOM      3  H   UNL     1       7.270   7.981   1.762  0.00  0.00    +0.000 HD
ENDROOT
BRANCH   1   4
ATOM      4  C   UNL     1       7.099   8.564  -0.311  0.00  0.00    +0.000 C 
ATOM      5  H   UNL     1       6.324   8.607  -1.086  0.00  0.00    +0.000 HD
ATOM      6  H   UNL     1       7.843   7.827  -0.637  0.00  0.00    +0.000 HD
BRANCH   4   7
ATOM      7  C   UNL     1       7.760   9.937  -0.176  0.00  0.00    +0.000 C 
ATOM      8  H   UNL     1       7.557  10.351   0.818  0.00  0.00    +0.000 HD
ATOM      9  H   UNL     1       8.848   9.838  -0.271  0.00  0.00    +0.000 HD
BRANCH   7  10
ATOM     10  C   UNL     1       7.255  10.905  -1.234  0.00  0.00    +0.000 C 
ATOM     11  H   UNL     1       7.686  11.898  -1.076  0.00  0.00    +0.000 HD
ATOM     12  H   UNL     1       6.165  10.997  -1.193  0.00  0.00    +0.000 HD
ATOM     13  H   UNL     1       7.534  10.570  -2.238  0.00  0.00    +0.000 HD
ENDBRANCH   7  10
ENDBRANCH   4   7
ENDBRANCH   1   4
BRANCH   1  14
ATOM     14  C   UNL     1       5.455   9.127   1.522  0.00  0.00    +0.000 C 
ATOM     15  H   UNL     1       5.933  10.112   1.615  0.00  0.00    +0.000 HD
ATOM     16  H   UNL     1       5.134   8.841   2.532  0.00  0.00    +0.000 HD
BRANCH  14  17
ATOM     17  C   UNL     1       4.236   9.232   0.611  0.00  0.00    +0.000 C 
ATOM     18  H   UNL     1       3.403   8.644   1.007  0.00  0.00    +0.000 HD
ATOM     19  H   UNL     1       4.475   8.861  -0.392  0.00  0.00    +0.000 HD
BRANCH  17  21
ATOM     20  O   UNL     1       3.280  11.298   1.399  0.00  0.00    +0.000 OA
ATOM     21  C   UNL     1       3.772  10.658   0.475  0.00  0.00    +0.000 C 
ATOM     22  H   UNL     1       3.887  11.103  -0.529  0.00  0.00    +0.000 HD
ENDBRANCH  17  21
ENDBRANCH  14  17
ENDBRANCH   1  14
TORSDOF 6
ENDMDL
MODEL 8
REMARK VINA RESULT:    -3.711     17.368     18.881
REMARK INTER + INTRA:          -5.101
REMARK INTER:                  -4.938
REMARK INTRA:                  -0.162
REMARK UNBOUND:                -0.196
REMARK  Name = 8130
REMARK  6 active torsions:
REMARK  status: ('A' for Active; 'I' for Inactive)
REMARK    1  A    between atoms: C_2  and  C_3
REMARK    2  A    between atoms: C_2  and  C_4
REMARK    3  A    between atoms: C_3  and  C_5
REMARK    4  A    between atoms: C_4  and  C_6
REMARK    5  A    between atoms: C_5  and  C_7
REMARK    6  A    between atoms: C_6  and  C_8
REMARK                            x       y       z     vdW  Elec       q    Type
REMARK                         _______ _______ _______ _____ _____    ______ ____
ROOT
ATOM      1  C   UNL     1      -8.298  11.123   5.231  0.00  0.00    +0.000 C 
ATOM      2  H   UNL     1      -9.230  11.435   4.744  0.00  0.00    +0.000 HD
ATOM      3  H   UNL     1      -8.094  10.094   4.909  0.00  0.00    +0.000 HD
ENDROOT
BRANCH   1   4
ATOM      4  C   UNL     1      -7.153  12.035   4.787  0.00  0.00    +0.000 C 
ATOM      5  H   UNL     1      -7.412  12.518   3.837  0.00  0.00    +0.000 HD
ATOM      6  H   UNL     1      -6.254  11.432   4.609  0.00  0.00    +0.000 HD
BRANCH   4   7
ATOM      7  C   UNL     1      -6.855  13.105   5.837  0.00  0.00    +0.000 C 
ATOM      8  H   UNL     1      -7.761  13.324   6.414  0.00  0.00    +0.000 HD
ATOM      9  H   UNL     1      -6.102  12.735   6.544  0.00  0.00    +0.000 HD
BRANCH   7  10
ATOM     10  C   UNL     1      -6.347  14.388   5.197  0.00  0.00    +0.000 C 
ATOM     11  H   UNL     1      -6.576  14.393   4.126  0.00  0.00    +0.000 HD
ATOM     12  H   UNL     1      -5.262  14.481   5.313  0.00  0.00    +0.000 HD
ATOM     13  H   UNL     1      -6.819  15.266   5.649  0.00  0.00    +0.000 HD
ENDBRANCH   7  10
ENDBRANCH   4   7
ENDBRANCH   1   4
BRANCH   1  14
ATOM     14  C   UNL     1      -8.477  11.156   6.750  0.00  0.00    +0.000 C 
ATOM     15  H   UNL     1      -9.263  11.878   7.009  0.00  0.00    +0.000 HD
ATOM     16  H   UNL     1      -7.553  11.522   7.215  0.00  0.00    +0.000 HD
BRANCH  14  17
ATOM     17  C   UNL     1      -8.829   9.787   7.324  0.00  0.00    +0.000 C 
ATOM     18  H   UNL     1      -8.193   9.552   8.183  0.00  0.00    +0.000 HD
ATOM     19  H   UNL     1      -8.690   9.008   6.567  0.00  0.00    +0.000 HD
BRANCH  17  21
ATOM     20  O   UNL     1     -11.139   9.117   7.185  0.00  0.00    +0.000 OA
ATOM     21  C   UNL     1     -10.263   9.734   7.782  0.00  0.00    +0.000 C 
ATOM     22  H   UNL     1     -10.491  10.306   8.699  0.00  0.00    +0.000 HD
ENDBRANCH  17  21
ENDBRANCH  14  17
ENDBRANCH   1  14
TORSDOF 6
ENDMDL
MODEL 9
REMARK VINA RESULT:    -3.572     14.455     15.264
REMARK INTER + INTRA:          -4.916
REMARK INTER:                  -4.661
REMARK INTRA:                  -0.256
REMARK UNBOUND:                -0.196
REMARK  Name = 8130
REMARK  6 active torsions:
REMARK  status: ('A' for Active; 'I' for Inactive)
REMARK    1  A    between atoms: C_2  and  C_3
REMARK    2  A    between atoms: C_2  and  C_4
REMARK    3  A    between atoms: C_3  and  C_5
REMARK    4  A    between atoms: C_4  and  C_6
REMARK    5  A    between atoms: C_5  and  C_7
REMARK    6  A    between atoms: C_6  and  C_8
REMARK                            x       y       z     vdW  Elec       q    Type
REMARK                         _______ _______ _______ _____ _____    ______ ____
ROOT
ATOM      1  C   UNL     1       6.497   8.105   2.698  0.00  0.00    +0.000 C 
ATOM      2  H   UNL     1       5.803   8.932   2.887  0.00  0.00    +0.000 HD
ATOM      3  H   UNL     1       7.472   8.403   3.102  0.00  0.00    +0.000 HD
ENDROOT
BRANCH   1   4
ATOM      4  C   UNL     1       6.008   6.845   3.416  0.00  0.00    +0.000 C 
ATOM      5  H   UNL     1       6.857   6.179   3.612  0.00  0.00    +0.000 HD
ATOM      6  H   UNL     1       5.313   6.301   2.765  0.00  0.00    +0.000 HD
BRANCH   4   7
ATOM      7  C   UNL     1       5.316   7.190   4.735  0.00  0.00    +0.000 C 
ATOM      8  H   UNL     1       4.370   6.643   4.813  0.00  0.00    +0.000 HD
ATOM      9  H   UNL     1       5.943   6.876   5.578  0.00  0.00    +0.000 HD
BRANCH   7  10
ATOM     10  C   UNL     1       5.043   8.682   4.847  0.00  0.00    +0.000 C 
ATOM     11  H   UNL     1       5.945   9.208   5.175  0.00  0.00    +0.000 HD
ATOM     12  H   UNL     1       4.249   8.882   5.574  0.00  0.00    +0.000 HD
ATOM     13  H   UNL     1       4.739   9.099   3.881  0.00  0.00    +0.000 HD
ENDBRANCH   7  10
ENDBRANCH   4   7
ENDBRANCH   1   4
BRANCH   1  14
ATOM     14  C   UNL     1       6.619   7.872   1.190  0.00  0.00    +0.000 C 
ATOM     15  H   UNL     1       6.288   6.854   0.950  0.00  0.00    +0.000 HD
ATOM     16  H   UNL     1       7.676   7.933   0.900  0.00  0.00    +0.000 HD
BRANCH  14  17
ATOM     17  C   UNL     1       5.811   8.880   0.379  0.00  0.00    +0.000 C 
ATOM     18  H   UNL     1       5.322   8.392  -0.470  0.00  0.00    +0.000 HD
ATOM     19  H   UNL     1       6.461   9.673  -0.004  0.00  0.00    +0.000 HD
BRANCH  17  21
ATOM     20  O   UNL     1       3.545   9.278   1.097  0.00  0.00    +0.000 OA
ATOM     21  C   UNL     1       4.740   9.528   1.218  0.00  0.00    +0.000 C 
ATOM     22  H   UNL     1       5.096  10.269   1.955  0.00  0.00    +0.000 HD
ENDBRANCH  17  21
ENDBRANCH  14  17
ENDBRANCH   1  14
TORSDOF 6
ENDMDL
MODEL 10
REMARK VINA RESULT:    -3.482      3.648      5.509
REMARK INTER + INTRA:          -4.798
REMARK INTER:                  -4.602
REMARK INTRA:                  -0.196
REMARK UNBOUND:                -0.196
REMARK  Name = 8130
REMARK  6 active torsions:
REMARK  status: ('A' for Active; 'I' for Inactive)
REMARK    1  A    between atoms: C_2  and  C_3
REMARK    2  A    between atoms: C_2  and  C_4
REMARK    3  A    between atoms: C_3  and  C_5
REMARK    4  A    between atoms: C_4  and  C_6
REMARK    5  A    between atoms: C_5  and  C_7
REMARK    6  A    between atoms: C_6  and  C_8
REMARK                            x       y       z     vdW  Elec       q    Type
REMARK                         _______ _______ _______ _____ _____    ______ ____
ROOT
ATOM      1  C   UNL     1      -4.027   6.966 -10.507  0.00  0.00    +0.000 C 
ATOM      2  H   UNL     1      -4.162   7.952 -10.969  0.00  0.00    +0.000 HD
ATOM      3  H   UNL     1      -3.527   6.329 -11.247  0.00  0.00    +0.000 HD
ENDROOT
BRANCH   1   4
ATOM      4  C   UNL     1      -3.146   7.094  -9.263  0.00  0.00    +0.000 C 
ATOM      5  H   UNL     1      -2.193   6.579  -9.431  0.00  0.00    +0.000 HD
ATOM      6  H   UNL     1      -3.637   6.601  -8.416  0.00  0.00    +0.000 HD
BRANCH   4   7
ATOM      7  C   UNL     1      -2.878   8.560  -8.919  0.00  0.00    +0.000 C 
ATOM      8  H   UNL     1      -3.656   8.932  -8.244  0.00  0.00    +0.000 HD
ATOM      9  H   UNL     1      -1.921   8.650  -8.393  0.00  0.00    +0.000 HD
BRANCH   7  10
ATOM     10  C   UNL     1      -2.842   9.427 -10.168  0.00  0.00    +0.000 C 
ATOM     11  H   UNL     1      -2.182  10.287 -10.014  0.00  0.00    +0.000 HD
ATOM     12  H   UNL     1      -3.840   9.805 -10.413  0.00  0.00    +0.000 HD
ATOM     13  H   UNL     1      -2.467   8.862 -11.028  0.00  0.00    +0.000 HD
ENDBRANCH   7  10
ENDBRANCH   4   7
ENDBRANCH   1   4
BRANCH   1  14
ATOM     14  C   UNL     1      -5.394   6.371 -10.161  0.00  0.00    +0.000 C 
ATOM     15  H   UNL     1      -5.569   5.479 -10.776  0.00  0.00    +0.000 HD
ATOM     16  H   UNL     1      -6.179   7.091 -10.425  0.00  0.00    +0.000 HD
BRANCH  14  17
ATOM     17  C   UNL     1      -5.512   6.007  -8.684  0.00  0.00    +0.000 C 
ATOM     18  H   UNL     1      -5.511   6.907  -8.061  0.00  0.00    +0.000 HD
ATOM     19  H   UNL     1      -4.674   5.373  -8.378  0.00  0.00    +0.000 HD
BRANCH  17  21
ATOM     20  O   UNL     1      -6.838   4.031  -8.308  0.00  0.00    +0.000 OA
ATOM     21  C   UNL     1      -6.786   5.253  -8.404  0.00  0.00    +0.000 C 
ATOM     22  H   UNL     1      -7.693   5.873  -8.301  0.00  0.00    +0.000 HD
ENDBRANCH  17  21
ENDBRANCH  14  17
ENDBRANCH   1  14
TORSDOF 6
ENDMDL
