MODEL 1
REMARK VINA RESULT:    -4.326      0.000      0.000
REMARK INTER + INTRA:          -5.981
REMARK INTER:                  -5.713
REMARK INTRA:                  -0.268
REMARK UNBOUND:                -0.138
REMARK  Name = 8094
REMARK  7 active torsions:
REMARK  status: ('A' for Active; 'I' for Inactive)
REMARK    1  A    between atoms: O_1  and  C_9
REMARK    2  A    between atoms: C_3  and  C_4
REMARK    3  A    between atoms: C_3  and  C_5
REMARK    4  A    between atoms: C_4  and  C_6
REMARK    5  A    between atoms: C_5  and  C_7
REMARK    6  A    between atoms: C_6  and  C_8
REMARK    7  A    between atoms: C_7  and  C_9
REMARK                            x       y       z     vdW  Elec       q    Type
REMARK                         _______ _______ _______ _____ _____    ______ ____
ROOT
ATOM      1  C   UNL     1      -3.574   7.485  -9.198  0.00  0.00    +0.000 C 
ATOM      2  H   UNL     1      -4.519   7.809  -9.652  0.00  0.00    +0.000 HD
ATOM      3  H   UNL     1      -3.826   6.868  -8.327  0.00  0.00    +0.000 HD
ENDROOT
BRANCH   1   4
ATOM      4  C   UNL     1      -2.776   8.709  -8.743  0.00  0.00    +0.000 C 
ATOM      5  H   UNL     1      -3.215   9.105  -7.818  0.00  0.00    +0.000 HD
ATOM      6  H   UNL     1      -1.752   8.401  -8.500  0.00  0.00    +0.000 HD
BRANCH   4   7
ATOM      7  C   UNL     1      -2.729   9.826  -9.788  0.00  0.00    +0.000 C 
ATOM      8  H   UNL     1      -3.063  10.766  -9.330  0.00  0.00    +0.000 HD
ATOM      9  H   UNL     1      -3.435   9.597 -10.595  0.00  0.00    +0.000 HD
BRANCH   7  10
ATOM     10  C   UNL     1      -1.348  10.036 -10.390  0.00  0.00    +0.000 C 
ATOM     11  H   UNL     1      -0.756   9.119 -10.311  0.00  0.00    +0.000 HD
ATOM     12  H   UNL     1      -0.812  10.834  -9.869  0.00  0.00    +0.000 HD
ATOM     13  H   UNL     1      -1.421  10.304 -11.448  0.00  0.00    +0.000 HD
ENDBRANCH   7  10
ENDBRANCH   4   7
ENDBRANCH   1   4
BRANCH   1  14
ATOM     14  C   UNL     1      -2.777   6.649 -10.205  0.00  0.00    +0.000 C 
ATOM     15  H   UNL     1      -2.905   5.583  -9.982  0.00  0.00    +0.000 HD
ATOM     16  H   UNL     1      -1.707   6.864 -10.094  0.00  0.00    +0.000 HD
BRANCH  14  17
ATOM     17  C   UNL     1      -3.201   6.915 -11.651  0.00  0.00    +0.000 C 
ATOM     18  H   UNL     1      -3.674   7.902 -11.720  0.00  0.00    +0.000 HD
ATOM     19  H   UNL     1      -3.926   6.155 -11.962  0.00  0.00    +0.000 HD
BRANCH  17  21
ATOM     20  O   UNL     1      -2.143   6.880 -13.845  0.00  0.00    +0.000 OA
ATOM     21  C   UNL     1      -2.046   6.887 -12.626  0.00  0.00    +0.000 C 
BRANCH  21  22
ATOM     22  O   UNL     1      -0.851   6.895 -11.979  0.00  0.00    +0.000 OA
ATOM     23  H   UNL     1      -0.962   6.819 -11.007  0.00  0.00    +0.000 HD
ENDBRANCH  21  22
ENDBRANCH  17  21
ENDBRANCH  14  17
ENDBRANCH   1  14
TORSDOF 7
ENDMDL
MODEL 2
REMARK VINA RESULT:    -4.325      1.512      2.972
REMARK INTER + INTRA:          -5.980
REMARK INTER:                  -5.724
REMARK INTRA:                  -0.256
REMARK UNBOUND:                -0.138
REMARK  Name = 8094
REMARK  7 active torsions:
REMARK  status: ('A' for Active; 'I' for Inactive)
REMARK    1  A    between atoms: O_1  and  C_9
REMARK    2  A    between atoms: C_3  and  C_4
REMARK    3  A    between atoms: C_3  and  C_5
REMARK    4  A    between atoms: C_4  and  C_6
REMARK    5  A    between atoms: C_5  and  C_7
REMARK    6  A    between atoms: C_6  and  C_8
REMARK    7  A    between atoms: C_7  and  C_9
REMARK                            x       y       z     vdW  Elec       q    Type
REMARK                         _______ _______ _______ _____ _____    ______ ____
ROOT
ATOM      1  C   UNL     1      -2.693   9.491 -10.110  0.00  0.00    +0.000 C 
ATOM      2  H   UNL     1      -3.331  10.381 -10.061  0.00  0.00    +0.000 HD
ATOM      3  H   UNL     1      -3.044   8.884 -10.953  0.00  0.00    +0.000 HD
ENDROOT
BRANCH   1   4
ATOM      4  C   UNL     1      -2.827   8.689  -8.813  0.00  0.00    +0.000 C 
ATOM      5  H   UNL     1      -1.862   8.681  -8.290  0.00  0.00    +0.000 HD
ATOM      6  H   UNL     1      -3.541   9.193  -8.151  0.00  0.00    +0.000 HD
BRANCH   4   7
ATOM      7  C   UNL     1      -3.283   7.246  -9.036  0.00  0.00    +0.000 C 
ATOM      8  H   UNL     1      -4.258   7.095  -8.558  0.00  0.00    +0.000 HD
ATOM      9  H   UNL     1      -2.579   6.563  -8.545  0.00  0.00    +0.000 HD
BRANCH   7  10
ATOM     10  C   UNL     1      -3.391   6.864 -10.504  0.00  0.00    +0.000 C 
ATOM     11  H   UNL     1      -4.087   7.532 -11.021  0.00  0.00    +0.000 HD
ATOM     12  H   UNL     1      -3.757   5.839 -10.615  0.00  0.00    +0.000 HD
ATOM     13  H   UNL     1      -2.418   6.936 -10.999  0.00  0.00    +0.000 HD
ENDBRANCH   7  10
ENDBRANCH   4   7
ENDBRANCH   1   4
BRANCH   1  14
ATOM     14  C   UNL     1      -1.238   9.911 -10.352  0.00  0.00    +0.000 C 
ATOM     15  H   UNL     1      -0.563   9.146  -9.950  0.00  0.00    +0.000 HD
ATOM     16  H   UNL     1      -1.027  10.834  -9.798  0.00  0.00    +0.000 HD
BRANCH  14  17
ATOM     17  C   UNL     1      -0.931  10.126 -11.835  0.00  0.00    +0.000 C 
ATOM     18  H   UNL     1      -0.221  10.954 -11.947  0.00  0.00    +0.000 HD
ATOM     19  H   UNL     1      -1.856  10.380 -12.364  0.00  0.00    +0.000 HD
BRANCH  17  21
ATOM     20  O   UNL     1      -0.411   7.759 -12.091  0.00  0.00    +0.000 OA
ATOM     21  C   UNL     1      -0.330   8.909 -12.501  0.00  0.00    +0.000 C 
BRANCH  21  22
ATOM     22  O   UNL     1       0.308   9.240 -13.655  0.00  0.00    +0.000 OA
ATOM     23  H   UNL     1       0.110  10.161 -13.929  0.00  0.00    +0.000 HD
ENDBRANCH  21  22
ENDBRANCH  17  21
ENDBRANCH  14  17
ENDBRANCH   1  14
TORSDOF 7
ENDMDL
MODEL 3
REMARK VINA RESULT:    -4.242     13.344     14.690
REMARK INTER + INTRA:          -5.868
REMARK INTER:                  -5.687
REMARK INTRA:                  -0.181
REMARK UNBOUND:                -0.138
REMARK  Name = 8094
REMARK  7 active torsions:
REMARK  status: ('A' for Active; 'I' for Inactive)
REMARK    1  A    between atoms: O_1  and  C_9
REMARK    2  A    between atoms: C_3  and  C_4
REMARK    3  A    between atoms: C_3  and  C_5
REMARK    4  A    between atoms: C_4  and  C_6
REMARK    5  A    between atoms: C_5  and  C_7
REMARK    6  A    between atoms: C_6  and  C_8
REMARK    7  A    between atoms: C_7  and  C_9
REMARK                            x       y       z     vdW  Elec       q    Type
REMARK                         _______ _______ _______ _____ _____    ______ ____
ROOT
ATOM      1  C   UNL     1       5.963   8.481   0.334  0.00  0.00    +0.000 C 
ATOM      2  H   UNL     1       5.915   7.566  -0.268  0.00  0.00    +0.000 HD
ATOM      3  H   UNL     1       6.603   9.192  -0.204  0.00  0.00    +0.000 HD
ENDROOT
BRANCH   1   4
ATOM      4  C   UNL     1       6.583   8.168   1.698  0.00  0.00    +0.000 C 
ATOM      5  H   UNL     1       7.171   7.244   1.626  0.00  0.00    +0.000 HD
ATOM      6  H   UNL     1       7.282   8.967   1.969  0.00  0.00    +0.000 HD
BRANCH   4   7
ATOM      7  C   UNL     1       5.547   8.010   2.813  0.00  0.00    +0.000 C 
ATOM      8  H   UNL     1       4.540   8.114   2.391  0.00  0.00    +0.000 HD
ATOM      9  H   UNL     1       5.671   8.821   3.541  0.00  0.00    +0.000 HD
BRANCH   7  10
ATOM     10  C   UNL     1       5.638   6.679   3.543  0.00  0.00    +0.000 C 
ATOM     11  H   UNL     1       5.126   5.897   2.974  0.00  0.00    +0.000 HD
ATOM     12  H   UNL     1       5.172   6.743   4.531  0.00  0.00    +0.000 HD
ATOM     13  H   UNL     1       6.682   6.377   3.675  0.00  0.00    +0.000 HD
ENDBRANCH   7  10
ENDBRANCH   4   7
ENDBRANCH   1   4
BRANCH   1  14
ATOM     14  C   UNL     1       4.558   9.073   0.489  0.00  0.00    +0.000 C 
ATOM     15  H   UNL     1       4.389   9.352   1.536  0.00  0.00    +0.000 HD
ATOM     16  H   UNL     1       3.810   8.308   0.246  0.00  0.00    +0.000 HD
BRANCH  14  17
ATOM     17  C   UNL     1       4.339  10.299  -0.400  0.00  0.00    +0.000 C 
ATOM     18  H   UNL     1       3.567  10.079  -1.146  0.00  0.00    +0.000 HD
ATOM     19  H   UNL     1       5.272  10.542  -0.919  0.00  0.00    +0.000 HD
BRANCH  17  21
ATOM     20  O   UNL     1       2.799  11.692   0.875  0.00  0.00    +0.000 OA
ATOM     21  C   UNL     1       3.901  11.524   0.371  0.00  0.00    +0.000 C 
BRANCH  21  22
ATOM     22  O   UNL     1       4.905  12.434   0.466  0.00  0.00    +0.000 OA
ATOM     23  H   UNL     1       5.706  12.147  -0.023  0.00  0.00    +0.000 HD
ENDBRANCH  21  22
ENDBRANCH  17  21
ENDBRANCH  14  17
ENDBRANCH   1  14
TORSDOF 7
ENDMDL
MODEL 4
REMARK VINA RESULT:    -4.173     13.264     14.377
REMARK INTER + INTRA:          -5.775
REMARK INTER:                  -5.401
REMARK INTRA:                  -0.374
REMARK UNBOUND:                -0.138
REMARK  Name = 8094
REMARK  7 active torsions:
REMARK  status: ('A' for Active; 'I' for Inactive)
REMARK    1  A    between atoms: O_1  and  C_9
REMARK    2  A    between atoms: C_3  and  C_4
REMARK    3  A    between atoms: C_3  and  C_5
REMARK    4  A    between atoms: C_4  and  C_6
REMARK    5  A    between atoms: C_5  and  C_7
REMARK    6  A    between atoms: C_6  and  C_8
REMARK    7  A    between atoms: C_7  and  C_9
REMARK                            x       y       z     vdW  Elec       q    Type
REMARK                         _______ _______ _______ _____ _____    ______ ____
ROOT
ATOM      1  C   UNL     1       6.206   8.617   0.102  0.00  0.00    +0.000 C 
ATOM      2  H   UNL     1       6.228   7.522   0.043  0.00  0.00    +0.000 HD
ATOM      3  H   UNL     1       6.234   8.999  -0.926  0.00  0.00    +0.000 HD
ENDROOT
BRANCH   1   4
ATOM      4  C   UNL     1       7.436   9.116   0.865  0.00  0.00    +0.000 C 
ATOM      5  H   UNL     1       7.113   9.608   1.791  0.00  0.00    +0.000 HD
ATOM      6  H   UNL     1       8.049   8.257   1.161  0.00  0.00    +0.000 HD
BRANCH   4   7
ATOM      7  C   UNL     1       8.296  10.092   0.059  0.00  0.00    +0.000 C 
ATOM      8  H   UNL     1       9.285   9.649  -0.112  0.00  0.00    +0.000 HD
ATOM      9  H   UNL     1       8.453  11.005   0.644  0.00  0.00    +0.000 HD
BRANCH   7  10
ATOM     10  C   UNL     1       7.689  10.469  -1.284  0.00  0.00    +0.000 C 
ATOM     11  H   UNL     1       7.313   9.577  -1.795  0.00  0.00    +0.000 HD
ATOM     12  H   UNL     1       8.434  10.945  -1.929  0.00  0.00    +0.000 HD
ATOM     13  H   UNL     1       6.854  11.164  -1.153  0.00  0.00    +0.000 HD
ENDBRANCH   7  10
ENDBRANCH   4   7
ENDBRANCH   1   4
BRANCH   1  14
ATOM     14  C   UNL     1       4.911   9.073   0.783  0.00  0.00    +0.000 C 
ATOM     15  H   UNL     1       5.149   9.579   1.726  0.00  0.00    +0.000 HD
ATOM     16  H   UNL     1       4.306   8.195   1.044  0.00  0.00    +0.000 HD
BRANCH  14  17
ATOM     17  C   UNL     1       4.087  10.014  -0.098  0.00  0.00    +0.000 C 
ATOM     18  H   UNL     1       3.090   9.586  -0.261  0.00  0.00    +0.000 HD
ATOM     19  H   UNL     1       4.583  10.130  -1.067  0.00  0.00    +0.000 HD
BRANCH  17  21
ATOM     20  O   UNL     1       2.866  11.832   0.970  0.00  0.00    +0.000 OA
ATOM     21  C   UNL     1       3.907  11.389   0.504  0.00  0.00    +0.000 C 
BRANCH  21  22
ATOM     22  O   UNL     1       5.071  12.091   0.492  0.00  0.00    +0.000 OA
ATOM     23  H   UNL     1       5.630  11.857  -0.280  0.00  0.00    +0.000 HD
ENDBRANCH  21  22
ENDBRANCH  17  21
ENDBRANCH  14  17
ENDBRANCH   1  14
TORSDOF 7
ENDMDL
MODEL 5
REMARK VINA RESULT:    -4.168      1.614      2.335
REMARK INTER + INTRA:          -5.768
REMARK INTER:                  -5.579
REMARK INTRA:                  -0.188
REMARK UNBOUND:                -0.138
REMARK  Name = 8094
REMARK  7 active torsions:
REMARK  status: ('A' for Active; 'I' for Inactive)
REMARK    1  A    between atoms: O_1  and  C_9
REMARK    2  A    between atoms: C_3  and  C_4
REMARK    3  A    between atoms: C_3  and  C_5
REMARK    4  A    between atoms: C_4  and  C_6
REMARK    5  A    between atoms: C_5  and  C_7
REMARK    6  A    between atoms: C_6  and  C_8
REMARK    7  A    between atoms: C_7  and  C_9
REMARK                            x       y       z     vdW  Elec       q    Type
REMARK                         _______ _______ _______ _____ _____    ______ ____
ROOT
ATOM      1  C   UNL     1      -3.116   7.143 -10.915  0.00  0.00    +0.000 C 
ATOM      2  H   UNL     1      -3.336   8.199 -11.110  0.00  0.00    +0.000 HD
ATOM      3  H   UNL     1      -3.897   6.551 -11.407  0.00  0.00    +0.000 HD
ENDROOT
BRANCH   1   4
ATOM      4  C   UNL     1      -3.148   6.880  -9.407  0.00  0.00    +0.000 C 
ATOM      5  H   UNL     1      -4.010   6.244  -9.169  0.00  0.00    +0.000 HD
ATOM      6  H   UNL     1      -2.252   6.317  -9.121  0.00  0.00    +0.000 HD
BRANCH   4   7
ATOM      7  C   UNL     1      -3.226   8.158  -8.570  0.00  0.00    +0.000 C 
ATOM      8  H   UNL     1      -2.799   7.969  -7.577  0.00  0.00    +0.000 HD
ATOM      9  H   UNL     1      -4.278   8.427  -8.416  0.00  0.00    +0.000 HD
BRANCH   7  10
ATOM     10  C   UNL     1      -2.505   9.340  -9.198  0.00  0.00    +0.000 C 
ATOM     11  H   UNL     1      -1.422   9.194  -9.151  0.00  0.00    +0.000 HD
ATOM     12  H   UNL     1      -2.748  10.269  -8.673  0.00  0.00    +0.000 HD
ATOM     13  H   UNL     1      -2.788   9.456 -10.249  0.00  0.00    +0.000 HD
ENDBRANCH   7  10
ENDBRANCH   4   7
ENDBRANCH   1   4
BRANCH   1  14
ATOM     14  C   UNL     1      -1.749   6.782 -11.509  0.00  0.00    +0.000 C 
ATOM     15  H   UNL     1      -1.663   5.692 -11.599  0.00  0.00    +0.000 HD
ATOM     16  H   UNL     1      -0.956   7.103 -10.823  0.00  0.00    +0.000 HD
BRANCH  14  17
ATOM     17  C   UNL     1      -1.523   7.419 -12.882  0.00  0.00    +0.000 C 
ATOM     18  H   UNL     1      -2.464   7.844 -13.250  0.00  0.00    +0.000 HD
ATOM     19  H   UNL     1      -1.183   6.652 -13.586  0.00  0.00    +0.000 HD
BRANCH  17  21
ATOM     20  O   UNL     1      -0.169   9.180 -11.881  0.00  0.00    +0.000 OA
ATOM     21  C   UNL     1      -0.492   8.525 -12.862  0.00  0.00    +0.000 C 
BRANCH  21  22
ATOM     22  O   UNL     1       0.070   8.699 -14.088  0.00  0.00    +0.000 OA
ATOM     23  H   UNL     1      -0.607   8.758 -14.795  0.00  0.00    +0.000 HD
ENDBRANCH  21  22
ENDBRANCH  17  21
ENDBRANCH  14  17
ENDBRANCH   1  14
TORSDOF 7
ENDMDL
MODEL 6
REMARK VINA RESULT:    -4.157      1.542      2.494
REMARK INTER + INTRA:          -5.752
REMARK INTER:                  -5.513
REMARK INTRA:                  -0.240
REMARK UNBOUND:                -0.138
REMARK  Name = 8094
REMARK  7 active torsions:
REMARK  status: ('A' for Active; 'I' for Inactive)
REMARK    1  A    between atoms: O_1  and  C_9
REMARK    2  A    between atoms: C_3  and  C_4
REMARK    3  A    between atoms: C_3  and  C_5
REMARK    4  A    between atoms: C_4  and  C_6
REMARK    5  A    between atoms: C_5  and  C_7
REMARK    6  A    between atoms: C_6  and  C_8
REMARK    7  A    between atoms: C_7  and  C_9
REMARK                            x       y       z     vdW  Elec       q    Type
REMARK                         _______ _______ _______ _____ _____    ______ ____
ROOT
ATOM      1  C   UNL     1      -2.756   9.628  -9.944  0.00  0.00    +0.000 C 
ATOM      2  H   UNL     1      -3.252   9.201 -10.825  0.00  0.00    +0.000 HD
ATOM      3  H   UNL     1      -3.321  10.522  -9.654  0.00  0.00    +0.000 HD
ENDROOT
BRANCH   1   4
ATOM      4  C   UNL     1      -1.322  10.024 -10.304  0.00  0.00    +0.000 C 
ATOM      5  H   UNL     1      -1.096  11.004  -9.864  0.00  0.00    +0.000 HD
ATOM      6  H   UNL     1      -0.627   9.307  -9.853  0.00  0.00    +0.000 HD
BRANCH   4   7
ATOM      7  C   UNL     1      -1.070  10.087 -11.812  0.00  0.00    +0.000 C 
ATOM      8  H   UNL     1      -0.525  11.010 -12.051  0.00  0.00    +0.000 HD
ATOM      9  H   UNL     1      -2.030  10.141 -12.338  0.00  0.00    +0.000 HD
BRANCH   7  10
ATOM     10  C   UNL     1      -0.284   8.900 -12.346  0.00  0.00    +0.000 C 
ATOM     11  H   UNL     1      -0.661   7.968 -11.912  0.00  0.00    +0.000 HD
ATOM     12  H   UNL     1       0.777   8.989 -12.093  0.00  0.00    +0.000 HD
ATOM     13  H   UNL     1      -0.374   8.830 -13.434  0.00  0.00    +0.000 HD
ENDBRANCH   7  10
ENDBRANCH   4   7
ENDBRANCH   1   4
BRANCH   1  14
ATOM     14  C   UNL     1      -2.777   8.613  -8.796  0.00  0.00    +0.000 C 
ATOM     15  H   UNL     1      -3.227   9.072  -7.907  0.00  0.00    +0.000 HD
ATOM     16  H   UNL     1      -1.749   8.348  -8.523  0.00  0.00    +0.000 HD
BRANCH  14  17
ATOM     17  C   UNL     1      -3.552   7.343  -9.153  0.00  0.00    +0.000 C 
ATOM     18  H   UNL     1      -4.628   7.533  -9.070  0.00  0.00    +0.000 HD
ATOM     19  H   UNL     1      -3.280   6.544  -8.454  0.00  0.00    +0.000 HD
BRANCH  17  21
ATOM     20  O   UNL     1      -4.087   6.813 -11.470  0.00  0.00    +0.000 OA
ATOM     21  C   UNL     1      -3.275   6.850 -10.556  0.00  0.00    +0.000 C 
BRANCH  21  22
ATOM     22  O   UNL     1      -1.980   6.465 -10.699  0.00  0.00    +0.000 OA
ATOM     23  H   UNL     1      -1.384   7.233 -10.831  0.00  0.00    +0.000 HD
ENDBRANCH  21  22
ENDBRANCH  17  21
ENDBRANCH  14  17
ENDBRANCH   1  14
TORSDOF 7
ENDMDL
MODEL 7
REMARK VINA RESULT:    -4.120     25.938     26.468
REMARK INTER + INTRA:          -5.703
REMARK INTER:                  -5.489
REMARK INTRA:                  -0.215
REMARK UNBOUND:                -0.138
REMARK  Name = 8094
REMARK  7 active torsions:
REMARK  status: ('A' for Active; 'I' for Inactive)
REMARK    1  A    between atoms: O_1  and  C_9
REMARK    2  A    between atoms: C_3  and  C_4
REMARK    3  A    between atoms: C_3  and  C_5
REMARK    4  A    between atoms: C_4  and  C_6
REMARK    5  A    between atoms: C_5  and  C_7
REMARK    6  A    between atoms: C_6  and  C_8
REMARK    7  A    between atoms: C_7  and  C_9
REMARK                            x       y       z     vdW  Elec       q    Type
REMARK                         _______ _______ _______ _____ _____    ______ ____
ROOT
ATOM      1  C   UNL     1     -21.969  -2.872   4.424  0.00  0.00    +0.000 C 
ATOM      2  H   UNL     1     -22.421  -2.634   3.453  0.00  0.00    +0.000 HD
ATOM      3  H   UNL     1     -22.549  -3.694   4.860  0.00  0.00    +0.000 HD
ENDROOT
BRANCH   1   4
ATOM      4  C   UNL     1     -22.048  -1.649   5.341  0.00  0.00    +0.000 C 
ATOM      5  H   UNL     1     -22.787  -0.943   4.942  0.00  0.00    +0.000 HD
ATOM      6  H   UNL     1     -22.411  -1.961   6.327  0.00  0.00    +0.000 HD
BRANCH   4   7
ATOM      7  C   UNL     1     -20.709  -0.926   5.505  0.00  0.00    +0.000 C 
ATOM      8  H   UNL     1     -20.791   0.088   5.093  0.00  0.00    +0.000 HD
ATOM      9  H   UNL     1     -19.942  -1.446   4.919  0.00  0.00    +0.000 HD
BRANCH   7  10
ATOM     10  C   UNL     1     -20.242  -0.834   6.949  0.00  0.00    +0.000 C 
ATOM     11  H   UNL     1     -19.311  -0.261   7.012  0.00  0.00    +0.000 HD
ATOM     12  H   UNL     1     -20.059  -1.829   7.365  0.00  0.00    +0.000 HD
ATOM     13  H   UNL     1     -20.992  -0.335   7.571  0.00  0.00    +0.000 HD
ENDBRANCH   7  10
ENDBRANCH   4   7
ENDBRANCH   1   4
BRANCH   1  14
ATOM     14  C   UNL     1     -20.517  -3.319   4.223  0.00  0.00    +0.000 C 
ATOM     15  H   UNL     1     -19.840  -2.489   4.459  0.00  0.00    +0.000 HD
ATOM     16  H   UNL     1     -20.352  -3.563   3.166  0.00  0.00    +0.000 HD
BRANCH  14  17
ATOM     17  C   UNL     1     -20.152  -4.527   5.087  0.00  0.00    +0.000 C 
ATOM     18  H   UNL     1     -21.019  -5.193   5.172  0.00  0.00    +0.000 HD
ATOM     19  H   UNL     1     -19.871  -4.185   6.089  0.00  0.00    +0.000 HD
BRANCH  17  21
ATOM     20  O   UNL     1     -18.720  -5.446   3.343  0.00  0.00    +0.000 OA
ATOM     21  C   UNL     1     -19.002  -5.334   4.528  0.00  0.00    +0.000 C 
BRANCH  21  22
ATOM     22  O   UNL     1     -18.280  -5.919   5.520  0.00  0.00    +0.000 OA
ATOM     23  H   UNL     1     -18.172  -5.324   6.293  0.00  0.00    +0.000 HD
ENDBRANCH  21  22
ENDBRANCH  17  21
ENDBRANCH  14  17
ENDBRANCH   1  14
TORSDOF 7
ENDMDL
MODEL 8
REMARK VINA RESULT:    -3.989     17.827     18.804
REMARK INTER + INTRA:          -5.526
REMARK INTER:                  -5.287
REMARK INTRA:                  -0.239
REMARK UNBOUND:                -0.138
REMARK  Name = 8094
REMARK  7 active torsions:
REMARK  status: ('A' for Active; 'I' for Inactive)
REMARK    1  A    between atoms: O_1  and  C_9
REMARK    2  A    between atoms: C_3  and  C_4
REMARK    3  A    between atoms: C_3  and  C_5
REMARK    4  A    between atoms: C_4  and  C_6
REMARK    5  A    between atoms: C_5  and  C_7
REMARK    6  A    between atoms: C_6  and  C_8
REMARK    7  A    between atoms: C_7  and  C_9
REMARK                            x       y       z     vdW  Elec       q    Type
REMARK                         _______ _______ _______ _____ _____    ______ ____
ROOT
ATOM      1  C   UNL     1      -7.358  11.593   4.751  0.00  0.00    +0.000 C 
ATOM      2  H   UNL     1      -6.476  11.211   5.279  0.00  0.00    +0.000 HD
ATOM      3  H   UNL     1      -7.318  11.205   3.726  0.00  0.00    +0.000 HD
ENDROOT
BRANCH   1   4
ATOM      4  C   UNL     1      -7.318  13.123   4.720  0.00  0.00    +0.000 C 
ATOM      5  H   UNL     1      -7.353  13.466   3.679  0.00  0.00    +0.000 HD
ATOM      6  H   UNL     1      -8.215  13.517   5.213  0.00  0.00    +0.000 HD
BRANCH   4   7
ATOM      7  C   UNL     1      -6.077  13.711   5.395  0.00  0.00    +0.000 C 
ATOM      8  H   UNL     1      -5.861  14.696   4.963  0.00  0.00    +0.000 HD
ATOM      9  H   UNL     1      -5.211  13.073   5.180  0.00  0.00    +0.000 HD
BRANCH   7  10
ATOM     10  C   UNL     1      -6.216  13.854   6.903  0.00  0.00    +0.000 C 
ATOM     11  H   UNL     1      -6.869  13.071   7.300  0.00  0.00    +0.000 HD
ATOM     12  H   UNL     1      -6.648  14.824   7.164  0.00  0.00    +0.000 HD
ATOM     13  H   UNL     1      -5.242  13.768   7.394  0.00  0.00    +0.000 HD
ENDBRANCH   7  10
ENDBRANCH   4   7
ENDBRANCH   1   4
BRANCH   1  14
ATOM     14  C   UNL     1      -8.631  11.088   5.440  0.00  0.00    +0.000 C 
ATOM     15  H   UNL     1      -8.944  10.140   4.985  0.00  0.00    +0.000 HD
ATOM     16  H   UNL     1      -9.447  11.800   5.269  0.00  0.00    +0.000 HD
BRANCH  14  17
ATOM     17  C   UNL     1      -8.440  10.885   6.944  0.00  0.00    +0.000 C 
ATOM     18  H   UNL     1      -8.780  11.778   7.482  0.00  0.00    +0.000 HD
ATOM     19  H   UNL     1      -7.377  10.729   7.157  0.00  0.00    +0.000 HD
BRANCH  17  21
ATOM     20  O   UNL     1     -10.407   9.510   7.364  0.00  0.00    +0.000 OA
ATOM     21  C   UNL     1      -9.205   9.699   7.488  0.00  0.00    +0.000 C 
BRANCH  21  22
ATOM     22  O   UNL     1      -8.380   8.829   8.127  0.00  0.00    +0.000 OA
ATOM     23  H   UNL     1      -8.105   8.091   7.543  0.00  0.00    +0.000 HD
ENDBRANCH  21  22
ENDBRANCH  17  21
ENDBRANCH  14  17
ENDBRANCH   1  14
TORSDOF 7
ENDMDL
MODEL 9
REMARK VINA RESULT:    -3.945      2.999      4.471
REMARK INTER + INTRA:          -5.466
REMARK INTER:                  -5.274
REMARK INTRA:                  -0.192
REMARK UNBOUND:                -0.138
REMARK  Name = 8094
REMARK  7 active torsions:
REMARK  status: ('A' for Active; 'I' for Inactive)
REMARK    1  A    between atoms: O_1  and  C_9
REMARK    2  A    between atoms: C_3  and  C_4
REMARK    3  A    between atoms: C_3  and  C_5
REMARK    4  A    between atoms: C_4  and  C_6
REMARK    5  A    between atoms: C_5  and  C_7
REMARK    6  A    between atoms: C_6  and  C_8
REMARK    7  A    between atoms: C_7  and  C_9
REMARK                            x       y       z     vdW  Elec       q    Type
REMARK                         _______ _______ _______ _____ _____    ______ ____
ROOT
ATOM      1  C   UNL     1      -4.556   6.382  -8.818  0.00  0.00    +0.000 C 
ATOM      2  H   UNL     1      -4.536   5.382  -8.369  0.00  0.00    +0.000 HD
ATOM      3  H   UNL     1      -4.981   7.065  -8.072  0.00  0.00    +0.000 HD
ENDROOT
BRANCH   1   4
ATOM      4  C   UNL     1      -5.444   6.370 -10.064  0.00  0.00    +0.000 C 
ATOM      5  H   UNL     1      -5.576   7.397 -10.426  0.00  0.00    +0.000 HD
ATOM      6  H   UNL     1      -4.937   5.817 -10.863  0.00  0.00    +0.000 HD
BRANCH   4   7
ATOM      7  C   UNL     1      -6.822   5.749  -9.821  0.00  0.00    +0.000 C 
ATOM      8  H   UNL     1      -6.826   4.717 -10.195  0.00  0.00    +0.000 HD
ATOM      9  H   UNL     1      -7.574   6.299 -10.399  0.00  0.00    +0.000 HD
BRANCH   7  10
ATOM     10  C   UNL     1      -7.235   5.743  -8.358  0.00  0.00    +0.000 C 
ATOM     11  H   UNL     1      -8.084   6.416  -8.200  0.00  0.00    +0.000 HD
ATOM     12  H   UNL     1      -6.412   6.076  -7.718  0.00  0.00    +0.000 HD
ATOM     13  H   UNL     1      -7.532   4.739  -8.041  0.00  0.00    +0.000 HD
ENDBRANCH   7  10
ENDBRANCH   4   7
ENDBRANCH   1   4
BRANCH   1  14
ATOM     14  C   UNL     1      -3.128   6.823  -9.162  0.00  0.00    +0.000 C 
ATOM     15  H   UNL     1      -2.599   6.001  -9.658  0.00  0.00    +0.000 HD
ATOM     16  H   UNL     1      -2.578   7.035  -8.236  0.00  0.00    +0.000 HD
BRANCH  14  17
ATOM     17  C   UNL     1      -3.100   8.058 -10.064  0.00  0.00    +0.000 C 
ATOM     18  H   UNL     1      -4.125   8.350 -10.320  0.00  0.00    +0.000 HD
ATOM     19  H   UNL     1      -2.560   7.821 -10.987  0.00  0.00    +0.000 HD
BRANCH  17  21
ATOM     20  O   UNL     1      -1.384   9.769  -9.799  0.00  0.00    +0.000 OA
ATOM     21  C   UNL     1      -2.426   9.250  -9.422  0.00  0.00    +0.000 C 
BRANCH  21  22
ATOM     22  O   UNL     1      -3.141   9.711  -8.361  0.00  0.00    +0.000 OA
ATOM     23  H   UNL     1      -2.818  10.586  -8.056  0.00  0.00    +0.000 HD
ENDBRANCH  21  22
ENDBRANCH  17  21
ENDBRANCH  14  17
ENDBRANCH   1  14
TORSDOF 7
ENDMDL
MODEL 10
REMARK VINA RESULT:    -3.786     18.329     19.741
REMARK INTER + INTRA:          -5.252
REMARK INTER:                  -5.115
REMARK INTRA:                  -0.138
REMARK UNBOUND:                -0.138
REMARK  Name = 8094
REMARK  7 active torsions:
REMARK  status: ('A' for Active; 'I' for Inactive)
REMARK    1  A    between atoms: O_1  and  C_9
REMARK    2  A    between atoms: C_3  and  C_4
REMARK    3  A    between atoms: C_3  and  C_5
REMARK    4  A    between atoms: C_4  and  C_6
REMARK    5  A    between atoms: C_5  and  C_7
REMARK    6  A    between atoms: C_6  and  C_8
REMARK    7  A    between atoms: C_7  and  C_9
REMARK                            x       y       z     vdW  Elec       q    Type
REMARK                         _______ _______ _______ _____ _____    ______ ____
ROOT
ATOM      1  C   UNL     1       7.325   8.184   5.075  0.00  0.00    +0.000 C 
ATOM      2  H   UNL     1       7.712   8.564   4.122  0.00  0.00    +0.000 HD
ATOM      3  H   UNL     1       8.144   7.649   5.570  0.00  0.00    +0.000 HD
ENDROOT
BRANCH   1   4
ATOM      4  C   UNL     1       6.169   7.216   4.812  0.00  0.00    +0.000 C 
ATOM      5  H   UNL     1       6.322   6.300   5.396  0.00  0.00    +0.000 HD
ATOM      6  H   UNL     1       5.234   7.665   5.168  0.00  0.00    +0.000 HD
BRANCH   4   7
ATOM      7  C   UNL     1       6.014   6.843   3.336  0.00  0.00    +0.000 C 
ATOM      8  H   UNL     1       4.964   6.596   3.131  0.00  0.00    +0.000 HD
ATOM      9  H   UNL     1       6.599   5.940   3.126  0.00  0.00    +0.000 HD
BRANCH   7  10
ATOM     10  C   UNL     1       6.454   7.943   2.382  0.00  0.00    +0.000 C 
ATOM     11  H   UNL     1       5.665   8.694   2.278  0.00  0.00    +0.000 HD
ATOM     12  H   UNL     1       6.672   7.536   1.390  0.00  0.00    +0.000 HD
ATOM     13  H   UNL     1       7.354   8.443   2.753  0.00  0.00    +0.000 HD
ENDBRANCH   7  10
ENDBRANCH   4   7
ENDBRANCH   1   4
BRANCH   1  14
ATOM     14  C   UNL     1       6.874   9.357   5.954  0.00  0.00    +0.000 C 
ATOM     15  H   UNL     1       5.919   9.110   6.435  0.00  0.00    +0.000 HD
ATOM     16  H   UNL     1       6.688  10.235   5.324  0.00  0.00    +0.000 HD
BRANCH  14  17
ATOM     17  C   UNL     1       7.902   9.710   7.029  0.00  0.00    +0.000 C 
ATOM     18  H   UNL     1       8.909   9.471   6.668  0.00  0.00    +0.000 HD
ATOM     19  H   UNL     1       7.702   9.120   7.930  0.00  0.00    +0.000 HD
BRANCH  17  21
ATOM     20  O   UNL     1       8.064  12.112   6.651  0.00  0.00    +0.000 OA
ATOM     21  C   UNL     1       7.884  11.172   7.414  0.00  0.00    +0.000 C 
BRANCH  21  22
ATOM     22  O   UNL     1       7.612  11.333   8.736  0.00  0.00    +0.000 OA
ATOM     23  H   UNL     1       7.512  12.279   8.975  0.00  0.00    +0.000 HD
ENDBRANCH  21  22
ENDBRANCH  17  21
ENDBRANCH  14  17
ENDBRANCH   1  14
TORSDOF 7
ENDMDL
