MODEL 1
REMARK VINA RESULT:    -3.873      0.000      0.000
REMARK INTER + INTRA:          -4.985
REMARK INTER:                  -4.841
REMARK INTRA:                  -0.144
REMARK UNBOUND:                -0.093
REMARK  Name = 6184
REMARK  5 active torsions:
REMARK  status: ('A' for Active; 'I' for Inactive)
REMARK    1  A    between atoms: C_2  and  C_3
REMARK    2  A    between atoms: C_2  and  C_4
REMARK    3  A    between atoms: C_3  and  C_5
REMARK    4  A    between atoms: C_4  and  C_6
REMARK    5  A    between atoms: C_5  and  C_7
REMARK                            x       y       z     vdW  Elec       q    Type
REMARK                         _______ _______ _______ _____ _____    ______ ____
ROOT
ATOM      1  C   UNL     1      -2.750   8.715  -8.858  0.00  0.00    +0.000 C 
ATOM      2  H   UNL     1      -1.741   8.590  -8.449  0.00  0.00    +0.000 HD
ATOM      3  H   UNL     1      -3.353   9.213  -8.087  0.00  0.00    +0.000 HD
ENDROOT
BRANCH   1   4
ATOM      4  C   UNL     1      -2.693   9.599 -10.108  0.00  0.00    +0.000 C 
ATOM      5  H   UNL     1      -3.355  10.464  -9.979  0.00  0.00    +0.000 HD
ATOM      6  H   UNL     1      -3.079   9.037 -10.969  0.00  0.00    +0.000 HD
BRANCH   4   7
ATOM      7  C   UNL     1      -1.279  10.087 -10.412  0.00  0.00    +0.000 C 
ATOM      8  H   UNL     1      -1.228  11.177 -10.329  0.00  0.00    +0.000 HD
ATOM      9  H   UNL     1      -0.573   9.659  -9.693  0.00  0.00    +0.000 HD
BRANCH   7  11
ATOM     10  O   UNL     1      -0.114   8.722 -12.052  0.00  0.00    +0.000 OA
ATOM     11  C   UNL     1      -0.784   9.715 -11.791  0.00  0.00    +0.000 C 
ATOM     12  H   UNL     1      -1.084  10.410 -12.593  0.00  0.00    +0.000 HD
ENDBRANCH   7  11
ENDBRANCH   4   7
ENDBRANCH   1   4
BRANCH   1  13
ATOM     13  C   UNL     1      -3.352   7.346  -9.174  0.00  0.00    +0.000 C 
ATOM     14  H   UNL     1      -3.161   6.654  -8.347  0.00  0.00    +0.000 HD
ATOM     15  H   UNL     1      -4.441   7.434  -9.278  0.00  0.00    +0.000 HD
BRANCH  13  16
ATOM     16  C   UNL     1      -2.774   6.764 -10.454  0.00  0.00    +0.000 C 
ATOM     17  H   UNL     1      -3.421   6.999 -11.304  0.00  0.00    +0.000 HD
ATOM     18  H   UNL     1      -2.685   5.675 -10.384  0.00  0.00    +0.000 HD
ATOM     19  H   UNL     1      -1.781   7.177 -10.658  0.00  0.00    +0.000 HD
ENDBRANCH  13  16
ENDBRANCH   1  13
TORSDOF 5
ENDMDL
MODEL 2
REMARK VINA RESULT:    -3.593      1.318      2.262
REMARK INTER + INTRA:          -4.631
REMARK INTER:                  -4.448
REMARK INTRA:                  -0.183
REMARK UNBOUND:                -0.093
REMARK  Name = 6184
REMARK  5 active torsions:
REMARK  status: ('A' for Active; 'I' for Inactive)
REMARK    1  A    between atoms: C_2  and  C_3
REMARK    2  A    between atoms: C_2  and  C_4
REMARK    3  A    between atoms: C_3  and  C_5
REMARK    4  A    between atoms: C_4  and  C_6
REMARK    5  A    between atoms: C_5  and  C_7
REMARK                            x       y       z     vdW  Elec       q    Type
REMARK                         _______ _______ _______ _____ _____    ______ ____
ROOT
ATOM      1  C   UNL     1      -3.126   6.867 -11.007  0.00  0.00    +0.000 C 
ATOM      2  H   UNL     1      -3.649   7.767 -11.354  0.00  0.00    +0.000 HD
ATOM      3  H   UNL     1      -3.659   6.002 -11.422  0.00  0.00    +0.000 HD
ENDROOT
BRANCH   1   4
ATOM      4  C   UNL     1      -1.686   6.876 -11.532  0.00  0.00    +0.000 C 
ATOM      5  H   UNL     1      -1.463   5.916 -12.013  0.00  0.00    +0.000 HD
ATOM      6  H   UNL     1      -0.992   6.969 -10.687  0.00  0.00    +0.000 HD
BRANCH   4   7
ATOM      7  C   UNL     1      -1.434   8.008 -12.524  0.00  0.00    +0.000 C 
ATOM      8  H   UNL     1      -0.958   7.620 -13.430  0.00  0.00    +0.000 HD
ATOM      9  H   UNL     1      -2.384   8.471 -12.813  0.00  0.00    +0.000 HD
BRANCH   7  11
ATOM     10  O   UNL     1      -0.865   9.887 -11.090  0.00  0.00    +0.000 OA
ATOM     11  C   UNL     1      -0.551   9.111 -11.985  0.00  0.00    +0.000 C 
ATOM     12  H   UNL     1       0.445   9.176 -12.454  0.00  0.00    +0.000 HD
ENDBRANCH   7  11
ENDBRANCH   4   7
ENDBRANCH   1   4
BRANCH   1  13
ATOM     13  C   UNL     1      -3.159   6.807  -9.481  0.00  0.00    +0.000 C 
ATOM     14  H   UNL     1      -4.087   6.330  -9.146  0.00  0.00    +0.000 HD
ATOM     15  H   UNL     1      -2.329   6.191  -9.115  0.00  0.00    +0.000 HD
BRANCH  13  16
ATOM     16  C   UNL     1      -3.062   8.193  -8.865  0.00  0.00    +0.000 C 
ATOM     17  H   UNL     1      -3.889   8.820  -9.210  0.00  0.00    +0.000 HD
ATOM     18  H   UNL     1      -2.124   8.682  -9.147  0.00  0.00    +0.000 HD
ATOM     19  H   UNL     1      -3.108   8.141  -7.773  0.00  0.00    +0.000 HD
ENDBRANCH  13  16
ENDBRANCH   1  13
TORSDOF 5
ENDMDL
MODEL 3
REMARK VINA RESULT:    -3.583     26.398     26.961
REMARK INTER + INTRA:          -4.619
REMARK INTER:                  -4.542
REMARK INTRA:                  -0.076
REMARK UNBOUND:                -0.093
REMARK  Name = 6184
REMARK  5 active torsions:
REMARK  status: ('A' for Active; 'I' for Inactive)
REMARK    1  A    between atoms: C_2  and  C_3
REMARK    2  A    between atoms: C_2  and  C_4
REMARK    3  A    between atoms: C_3  and  C_5
REMARK    4  A    between atoms: C_4  and  C_6
REMARK    5  A    between atoms: C_5  and  C_7
REMARK                            x       y       z     vdW  Elec       q    Type
REMARK                         _______ _______ _______ _____ _____    ______ ____
ROOT
ATOM      1  C   UNL     1     -20.879  -1.956   4.796  0.00  0.00    +0.000 C 
ATOM      2  H   UNL     1     -20.218  -1.995   3.921  0.00  0.00    +0.000 HD
ATOM      3  H   UNL     1     -21.911  -1.940   4.422  0.00  0.00    +0.000 HD
ENDROOT
BRANCH   1   4
ATOM      4  C   UNL     1     -20.668  -3.207   5.655  0.00  0.00    +0.000 C 
ATOM      5  H   UNL     1     -21.467  -3.279   6.404  0.00  0.00    +0.000 HD
ATOM      6  H   UNL     1     -19.727  -3.111   6.213  0.00  0.00    +0.000 HD
BRANCH   4   7
ATOM      7  C   UNL     1     -20.638  -4.487   4.825  0.00  0.00    +0.000 C 
ATOM      8  H   UNL     1     -21.052  -5.322   5.399  0.00  0.00    +0.000 HD
ATOM      9  H   UNL     1     -21.248  -4.362   3.923  0.00  0.00    +0.000 HD
BRANCH   7  11
ATOM     10  O   UNL     1     -18.473  -5.574   5.023  0.00  0.00    +0.000 OA
ATOM     11  C   UNL     1     -19.255  -4.892   4.370  0.00  0.00    +0.000 C 
ATOM     12  H   UNL     1     -18.976  -4.535   3.364  0.00  0.00    +0.000 HD
ENDBRANCH   7  11
ENDBRANCH   4   7
ENDBRANCH   1   4
BRANCH   1  13
ATOM     13  C   UNL     1     -20.603  -0.682   5.594  0.00  0.00    +0.000 C 
ATOM     14  H   UNL     1     -19.736  -0.159   5.175  0.00  0.00    +0.000 HD
ATOM     15  H   UNL     1     -21.460  -0.002   5.516  0.00  0.00    +0.000 HD
BRANCH  13  16
ATOM     16  C   UNL     1     -20.339  -0.988   7.060  0.00  0.00    +0.000 C 
ATOM     17  H   UNL     1     -20.250  -0.060   7.631  0.00  0.00    +0.000 HD
ATOM     18  H   UNL     1     -19.410  -1.553   7.181  0.00  0.00    +0.000 HD
ATOM     19  H   UNL     1     -21.156  -1.575   7.491  0.00  0.00    +0.000 HD
ENDBRANCH  13  16
ENDBRANCH   1  13
TORSDOF 5
ENDMDL
MODEL 4
REMARK VINA RESULT:    -3.571     13.524     14.246
REMARK INTER + INTRA:          -4.603
REMARK INTER:                  -4.513
REMARK INTRA:                  -0.090
REMARK UNBOUND:                -0.093
REMARK  Name = 6184
REMARK  5 active torsions:
REMARK  status: ('A' for Active; 'I' for Inactive)
REMARK    1  A    between atoms: C_2  and  C_3
REMARK    2  A    between atoms: C_2  and  C_4
REMARK    3  A    between atoms: C_3  and  C_5
REMARK    4  A    between atoms: C_4  and  C_6
REMARK    5  A    between atoms: C_5  and  C_7
REMARK                            x       y       z     vdW  Elec       q    Type
REMARK                         _______ _______ _______ _____ _____    ______ ____
ROOT
ATOM      1  C   UNL     1       5.809   8.563   2.095  0.00  0.00    +0.000 C 
ATOM      2  H   UNL     1       6.053   8.201   1.089  0.00  0.00    +0.000 HD
ATOM      3  H   UNL     1       6.369   9.494   2.249  0.00  0.00    +0.000 HD
ENDROOT
BRANCH   1   4
ATOM      4  C   UNL     1       4.307   8.852   2.186  0.00  0.00    +0.000 C 
ATOM      5  H   UNL     1       4.125   9.628   2.940  0.00  0.00    +0.000 HD
ATOM      6  H   UNL     1       3.783   7.952   2.535  0.00  0.00    +0.000 HD
BRANCH   4   7
ATOM      7  C   UNL     1       3.716   9.297   0.851  0.00  0.00    +0.000 C 
ATOM      8  H   UNL     1       4.202   8.766   0.025  0.00  0.00    +0.000 HD
ATOM      9  H   UNL     1       2.647   9.065   0.819  0.00  0.00    +0.000 HD
BRANCH   7  11
ATOM     10  O   UNL     1       3.216  11.657   1.146  0.00  0.00    +0.000 OA
ATOM     11  C   UNL     1       3.856  10.777   0.581  0.00  0.00    +0.000 C 
ATOM     12  H   UNL     1       4.610  11.040  -0.181  0.00  0.00    +0.000 HD
ENDBRANCH   7  11
ENDBRANCH   4   7
ENDBRANCH   1   4
BRANCH   1  13
ATOM     13  C   UNL     1       6.238   7.528   3.134  0.00  0.00    +0.000 C 
ATOM     14  H   UNL     1       6.943   6.818   2.686  0.00  0.00    +0.000 HD
ATOM     15  H   UNL     1       6.761   8.025   3.960  0.00  0.00    +0.000 HD
BRANCH  13  16
ATOM     16  C   UNL     1       5.045   6.763   3.686  0.00  0.00    +0.000 C 
ATOM     17  H   UNL     1       4.299   7.458   4.082  0.00  0.00    +0.000 HD
ATOM     18  H   UNL     1       5.350   6.094   4.496  0.00  0.00    +0.000 HD
ATOM     19  H   UNL     1       4.569   6.162   2.905  0.00  0.00    +0.000 HD
ENDBRANCH  13  16
ENDBRANCH   1  13
TORSDOF 5
ENDMDL
MODEL 5
REMARK VINA RESULT:    -3.570     13.088     13.802
REMARK INTER + INTRA:          -4.602
REMARK INTER:                  -4.521
REMARK INTRA:                  -0.082
REMARK UNBOUND:                -0.093
REMARK  Name = 6184
REMARK  5 active torsions:
REMARK  status: ('A' for Active; 'I' for Inactive)
REMARK    1  A    between atoms: C_2  and  C_3
REMARK    2  A    between atoms: C_2  and  C_4
REMARK    3  A    between atoms: C_3  and  C_5
REMARK    4  A    between atoms: C_4  and  C_6
REMARK    5  A    between atoms: C_5  and  C_7
REMARK                            x       y       z     vdW  Elec       q    Type
REMARK                         _______ _______ _______ _____ _____    ______ ____
ROOT
ATOM      1  C   UNL     1       7.397  10.798  -1.354  0.00  0.00    +0.000 C 
ATOM      2  H   UNL     1       6.823  10.091  -1.964  0.00  0.00    +0.000 HD
ATOM      3  H   UNL     1       7.775  11.577  -2.029  0.00  0.00    +0.000 HD
ENDROOT
BRANCH   1   4
ATOM      4  C   UNL     1       6.479  11.436  -0.306  0.00  0.00    +0.000 C 
ATOM      5  H   UNL     1       6.565  12.529  -0.357  0.00  0.00    +0.000 HD
ATOM      6  H   UNL     1       6.816  11.145   0.698  0.00  0.00    +0.000 HD
BRANCH   4   7
ATOM      7  C   UNL     1       5.019  11.035  -0.489  0.00  0.00    +0.000 C 
ATOM      8  H   UNL     1       4.743  11.077  -1.548  0.00  0.00    +0.000 HD
ATOM      9  H   UNL     1       4.867  10.007  -0.141  0.00  0.00    +0.000 HD
BRANCH   7  11
ATOM     10  O   UNL     1       3.299  11.515   1.161  0.00  0.00    +0.000 OA
ATOM     11  C   UNL     1       4.043  11.906   0.268  0.00  0.00    +0.000 C 
ATOM     12  H   UNL     1       4.043  12.968  -0.031  0.00  0.00    +0.000 HD
ENDBRANCH   7  11
ENDBRANCH   4   7
ENDBRANCH   1   4
BRANCH   1  13
ATOM     13  C   UNL     1       8.573  10.077  -0.695  0.00  0.00    +0.000 C 
ATOM     14  H   UNL     1       8.763   9.127  -1.208  0.00  0.00    +0.000 HD
ATOM     15  H   UNL     1       9.481  10.683  -0.790  0.00  0.00    +0.000 HD
BRANCH  13  16
ATOM     16  C   UNL     1       8.306   9.803   0.776  0.00  0.00    +0.000 C 
ATOM     17  H   UNL     1       7.306  10.152   1.052  0.00  0.00    +0.000 HD
ATOM     18  H   UNL     1       9.033  10.320   1.409  0.00  0.00    +0.000 HD
ATOM     19  H   UNL     1       8.363   8.731   0.992  0.00  0.00    +0.000 HD
ENDBRANCH  13  16
ENDBRANCH   1  13
TORSDOF 5
ENDMDL
MODEL 6
REMARK VINA RESULT:    -3.503      1.912      3.642
REMARK INTER + INTRA:          -4.517
REMARK INTER:                  -4.376
REMARK INTRA:                  -0.142
REMARK UNBOUND:                -0.093
REMARK  Name = 6184
REMARK  5 active torsions:
REMARK  status: ('A' for Active; 'I' for Inactive)
REMARK    1  A    between atoms: C_2  and  C_3
REMARK    2  A    between atoms: C_2  and  C_4
REMARK    3  A    between atoms: C_3  and  C_5
REMARK    4  A    between atoms: C_4  and  C_6
REMARK    5  A    between atoms: C_5  and  C_7
REMARK                            x       y       z     vdW  Elec       q    Type
REMARK                         _______ _______ _______ _____ _____    ______ ____
ROOT
ATOM      1  C   UNL     1      -1.718   6.805 -11.633  0.00  0.00    +0.000 C 
ATOM      2  H   UNL     1      -0.954   6.887 -10.850  0.00  0.00    +0.000 HD
ATOM      3  H   UNL     1      -1.604   5.816 -12.094  0.00  0.00    +0.000 HD
ENDROOT
BRANCH   1   4
ATOM      4  C   UNL     1      -3.111   6.918 -11.006  0.00  0.00    +0.000 C 
ATOM      5  H   UNL     1      -3.741   6.090 -11.355  0.00  0.00    +0.000 HD
ATOM      6  H   UNL     1      -3.593   7.842 -11.353  0.00  0.00    +0.000 HD
BRANCH   4   7
ATOM      7  C   UNL     1      -3.066   6.911  -9.481  0.00  0.00    +0.000 C 
ATOM      8  H   UNL     1      -3.961   6.425  -9.077  0.00  0.00    +0.000 HD
ATOM      9  H   UNL     1      -2.192   6.350  -9.135  0.00  0.00    +0.000 HD
BRANCH   7  11
ATOM     10  O   UNL     1      -2.151   9.139  -9.157  0.00  0.00    +0.000 OA
ATOM     11  C   UNL     1      -2.982   8.288  -8.863  0.00  0.00    +0.000 C 
ATOM     12  H   UNL     1      -3.753   8.502  -8.104  0.00  0.00    +0.000 HD
ENDBRANCH   7  11
ENDBRANCH   4   7
ENDBRANCH   1   4
BRANCH   1  13
ATOM     13  C   UNL     1      -1.494   7.890 -12.687  0.00  0.00    +0.000 C 
ATOM     14  H   UNL     1      -1.393   7.433 -13.678  0.00  0.00    +0.000 HD
ATOM     15  H   UNL     1      -2.365   8.555 -12.725  0.00  0.00    +0.000 HD
BRANCH  13  16
ATOM     16  C   UNL     1      -0.251   8.711 -12.388  0.00  0.00    +0.000 C 
ATOM     17  H   UNL     1       0.399   8.175 -11.689  0.00  0.00    +0.000 HD
ATOM     18  H   UNL     1      -0.515   9.672 -11.936  0.00  0.00    +0.000 HD
ATOM     19  H   UNL     1       0.320   8.906 -13.301  0.00  0.00    +0.000 HD
ENDBRANCH  13  16
ENDBRANCH   1  13
TORSDOF 5
ENDMDL
MODEL 7
REMARK VINA RESULT:    -3.441      1.351      1.899
REMARK INTER + INTRA:          -4.439
REMARK INTER:                  -4.307
REMARK INTRA:                  -0.132
REMARK UNBOUND:                -0.093
REMARK  Name = 6184
REMARK  5 active torsions:
REMARK  status: ('A' for Active; 'I' for Inactive)
REMARK    1  A    between atoms: C_2  and  C_3
REMARK    2  A    between atoms: C_2  and  C_4
REMARK    3  A    between atoms: C_3  and  C_5
REMARK    4  A    between atoms: C_4  and  C_6
REMARK    5  A    between atoms: C_5  and  C_7
REMARK                            x       y       z     vdW  Elec       q    Type
REMARK                         _______ _______ _______ _____ _____    ______ ____
ROOT
ATOM      1  C   UNL     1      -3.794   7.632 -11.091  0.00  0.00    +0.000 C 
ATOM      2  H   UNL     1      -4.513   7.622 -10.264  0.00  0.00    +0.000 HD
ATOM      3  H   UNL     1      -4.301   7.205 -11.966  0.00  0.00    +0.000 HD
ENDROOT
BRANCH   1   4
ATOM      4  C   UNL     1      -3.381   9.076 -11.396  0.00  0.00    +0.000 C 
ATOM      5  H   UNL     1      -4.249   9.639 -11.760  0.00  0.00    +0.000 HD
ATOM      6  H   UNL     1      -2.645   9.079 -12.210  0.00  0.00    +0.000 HD
BRANCH   4   7
ATOM      7  C   UNL     1      -2.794   9.784 -10.178  0.00  0.00    +0.000 C 
ATOM      8  H   UNL     1      -3.325  10.724  -9.993  0.00  0.00    +0.000 HD
ATOM      9  H   UNL     1      -2.905   9.153  -9.290  0.00  0.00    +0.000 HD
BRANCH   7  11
ATOM     10  O   UNL     1      -0.759  10.399 -11.356  0.00  0.00    +0.000 OA
ATOM     11  C   UNL     1      -1.325  10.112 -10.307  0.00  0.00    +0.000 C 
ATOM     12  H   UNL     1      -0.761  10.093  -9.359  0.00  0.00    +0.000 HD
ENDBRANCH   7  11
ENDBRANCH   4   7
ENDBRANCH   1   4
BRANCH   1  13
ATOM     13  C   UNL     1      -2.582   6.773 -10.732  0.00  0.00    +0.000 C 
ATOM     14  H   UNL     1      -2.117   7.148  -9.813  0.00  0.00    +0.000 HD
ATOM     15  H   UNL     1      -2.902   5.743 -10.534  0.00  0.00    +0.000 HD
BRANCH  13  16
ATOM     16  C   UNL     1      -1.549   6.771 -11.847  0.00  0.00    +0.000 C 
ATOM     17  H   UNL     1      -0.730   6.088 -11.604  0.00  0.00    +0.000 HD
ATOM     18  H   UNL     1      -1.127   7.770 -11.992  0.00  0.00    +0.000 HD
ATOM     19  H   UNL     1      -1.994   6.445 -12.793  0.00  0.00    +0.000 HD
ENDBRANCH  13  16
ENDBRANCH   1  13
TORSDOF 5
ENDMDL
MODEL 8
REMARK VINA RESULT:    -3.389     17.002     18.061
REMARK INTER + INTRA:          -4.374
REMARK INTER:                  -4.152
REMARK INTRA:                  -0.221
REMARK UNBOUND:                -0.093
REMARK  Name = 6184
REMARK  5 active torsions:
REMARK  status: ('A' for Active; 'I' for Inactive)
REMARK    1  A    between atoms: C_2  and  C_3
REMARK    2  A    between atoms: C_2  and  C_4
REMARK    3  A    between atoms: C_3  and  C_5
REMARK    4  A    between atoms: C_4  and  C_6
REMARK    5  A    between atoms: C_5  and  C_7
REMARK                            x       y       z     vdW  Elec       q    Type
REMARK                         _______ _______ _______ _____ _____    ______ ____
ROOT
ATOM      1  C   UNL     1      -7.452  13.039   4.704  0.00  0.00    +0.000 C 
ATOM      2  H   UNL     1      -8.307  13.332   5.325  0.00  0.00    +0.000 HD
ATOM      3  H   UNL     1      -7.613  13.470   3.708  0.00  0.00    +0.000 HD
ENDROOT
BRANCH   1   4
ATOM      4  C   UNL     1      -6.162  13.610   5.303  0.00  0.00    +0.000 C 
ATOM      5  H   UNL     1      -5.914  14.557   4.808  0.00  0.00    +0.000 HD
ATOM      6  H   UNL     1      -5.330  12.924   5.096  0.00  0.00    +0.000 HD
BRANCH   4   7
ATOM      7  C   UNL     1      -6.270  13.839   6.808  0.00  0.00    +0.000 C 
ATOM      8  H   UNL     1      -5.951  12.944   7.352  0.00  0.00    +0.000 HD
ATOM      9  H   UNL     1      -5.618  14.667   7.108  0.00  0.00    +0.000 HD
BRANCH   7  11
ATOM     10  O   UNL     1      -8.300  13.546   8.112  0.00  0.00    +0.000 OA
ATOM     11  C   UNL     1      -7.664  14.182   7.279  0.00  0.00    +0.000 C 
ATOM     12  H   UNL     1      -8.098  15.087   6.821  0.00  0.00    +0.000 HD
ENDBRANCH   7  11
ENDBRANCH   4   7
ENDBRANCH   1   4
BRANCH   1  13
ATOM     13  C   UNL     1      -7.387  11.516   4.600  0.00  0.00    +0.000 C 
ATOM     14  H   UNL     1      -7.719  11.195   3.606  0.00  0.00    +0.000 HD
ATOM     15  H   UNL     1      -6.351  11.178   4.720  0.00  0.00    +0.000 HD
BRANCH  13  16
ATOM     16  C   UNL     1      -8.256  10.847   5.653  0.00  0.00    +0.000 C 
ATOM     17  H   UNL     1      -9.299  11.157   5.538  0.00  0.00    +0.000 HD
ATOM     18  H   UNL     1      -7.929  11.120   6.661  0.00  0.00    +0.000 HD
ATOM     19  H   UNL     1      -8.214   9.757   5.562  0.00  0.00    +0.000 HD
ENDBRANCH  13  16
ENDBRANCH   1  13
TORSDOF 5
ENDMDL
MODEL 9
REMARK VINA RESULT:    -3.244     17.143     17.882
REMARK INTER + INTRA:          -4.190
REMARK INTER:                  -4.047
REMARK INTRA:                  -0.143
REMARK UNBOUND:                -0.093
REMARK  Name = 6184
REMARK  5 active torsions:
REMARK  status: ('A' for Active; 'I' for Inactive)
REMARK    1  A    between atoms: C_2  and  C_3
REMARK    2  A    between atoms: C_2  and  C_4
REMARK    3  A    between atoms: C_3  and  C_5
REMARK    4  A    between atoms: C_4  and  C_6
REMARK    5  A    between atoms: C_5  and  C_7
REMARK                            x       y       z     vdW  Elec       q    Type
REMARK                         _______ _______ _______ _____ _____    ______ ____
ROOT
ATOM      1  C   UNL     1      -8.294  12.689   4.349  0.00  0.00    +0.000 C 
ATOM      2  H   UNL     1      -8.378  12.674   3.256  0.00  0.00    +0.000 HD
ATOM      3  H   UNL     1      -9.315  12.712   4.752  0.00  0.00    +0.000 HD
ENDROOT
BRANCH   1   4
ATOM      4  C   UNL     1      -7.587  11.416   4.828  0.00  0.00    +0.000 C 
ATOM      5  H   UNL     1      -6.560  11.657   5.132  0.00  0.00    +0.000 HD
ATOM      6  H   UNL     1      -7.506  10.709   3.992  0.00  0.00    +0.000 HD
BRANCH   4   7
ATOM      7  C   UNL     1      -8.314  10.748   5.991  0.00  0.00    +0.000 C 
ATOM      8  H   UNL     1      -8.357   9.664   5.839  0.00  0.00    +0.000 HD
ATOM      9  H   UNL     1      -7.777  10.937   6.927  0.00  0.00    +0.000 HD
BRANCH   7  11
ATOM     10  O   UNL     1     -10.155  11.762   7.212  0.00  0.00    +0.000 OA
ATOM     11  C   UNL     1      -9.731  11.234   6.190  0.00  0.00    +0.000 C 
ATOM     12  H   UNL     1     -10.395  11.093   5.320  0.00  0.00    +0.000 HD
ENDBRANCH   7  11
ENDBRANCH   4   7
ENDBRANCH   1   4
BRANCH   1  13
ATOM     13  C   UNL     1      -7.540  13.942   4.793  0.00  0.00    +0.000 C 
ATOM     14  H   UNL     1      -7.483  14.657   3.964  0.00  0.00    +0.000 HD
ATOM     15  H   UNL     1      -8.083  14.434   5.608  0.00  0.00    +0.000 HD
BRANCH  13  16
ATOM     16  C   UNL     1      -6.132  13.610   5.260  0.00  0.00    +0.000 C 
ATOM     17  H   UNL     1      -6.124  13.420   6.337  0.00  0.00    +0.000 HD
ATOM     18  H   UNL     1      -5.446  14.438   5.056  0.00  0.00    +0.000 HD
ATOM     19  H   UNL     1      -5.751  12.717   4.754  0.00  0.00    +0.000 HD
ENDBRANCH  13  16
ENDBRANCH   1  13
TORSDOF 5
ENDMDL
MODEL 10
REMARK VINA RESULT:    -3.211     40.766     42.024
REMARK INTER + INTRA:          -4.148
REMARK INTER:                  -4.056
REMARK INTRA:                  -0.093
REMARK UNBOUND:                -0.093
REMARK  Name = 6184
REMARK  5 active torsions:
REMARK  status: ('A' for Active; 'I' for Inactive)
REMARK    1  A    between atoms: C_2  and  C_3
REMARK    2  A    between atoms: C_2  and  C_4
REMARK    3  A    between atoms: C_3  and  C_5
REMARK    4  A    between atoms: C_4  and  C_6
REMARK    5  A    between atoms: C_5  and  C_7
REMARK                            x       y       z     vdW  Elec       q    Type
REMARK                         _______ _______ _______ _____ _____    ______ ____
ROOT
ATOM      1  C   UNL     1      -4.067  -4.910  29.096  0.00  0.00    +0.000 C 
ATOM      2  H   UNL     1      -4.731  -4.970  29.967  0.00  0.00    +0.000 HD
ATOM      3  H   UNL     1      -3.041  -5.043  29.461  0.00  0.00    +0.000 HD
ENDROOT
BRANCH   1   4
ATOM      4  C   UNL     1      -4.408  -6.034  28.112  0.00  0.00    +0.000 C 
ATOM      5  H   UNL     1      -3.485  -6.528  27.783  0.00  0.00    +0.000 HD
ATOM      6  H   UNL     1      -4.867  -5.603  27.213  0.00  0.00    +0.000 HD
BRANCH   4   7
ATOM      7  C   UNL     1      -5.349  -7.072  28.716  0.00  0.00    +0.000 C 
ATOM      8  H   UNL     1      -5.849  -6.663  29.600  0.00  0.00    +0.000 HD
ATOM      9  H   UNL     1      -6.121  -7.345  27.988  0.00  0.00    +0.000 HD
BRANCH   7  11
ATOM     10  O   UNL     1      -4.834  -8.921  30.208  0.00  0.00    +0.000 OA
ATOM     11  C   UNL     1      -4.664  -8.352  29.135  0.00  0.00    +0.000 C 
ATOM     12  H   UNL     1      -3.978  -8.777  28.383  0.00  0.00    +0.000 HD
ENDBRANCH   7  11
ENDBRANCH   4   7
ENDBRANCH   1   4
BRANCH   1  13
ATOM     13  C   UNL     1      -4.203  -3.537  28.439  0.00  0.00    +0.000 C 
ATOM     14  H   UNL     1      -4.924  -2.926  28.993  0.00  0.00    +0.000 HD
ATOM     15  H   UNL     1      -3.241  -3.012  28.473  0.00  0.00    +0.000 HD
BRANCH  13  16
ATOM     16  C   UNL     1      -4.658  -3.653  26.993  0.00  0.00    +0.000 C 
ATOM     17  H   UNL     1      -3.792  -3.680  26.324  0.00  0.00    +0.000 HD
ATOM     18  H   UNL     1      -5.281  -2.800  26.708  0.00  0.00    +0.000 HD
ATOM     19  H   UNL     1      -5.237  -4.569  26.836  0.00  0.00    +0.000 HD
ENDBRANCH  13  16
ENDBRANCH   1  13
TORSDOF 5
ENDMDL
