MODEL 1
REMARK VINA RESULT:    -4.217      0.000      0.000
REMARK INTER + INTRA:          -5.641
REMARK INTER:                  -5.550
REMARK INTRA:                  -0.091
REMARK UNBOUND:                -0.191
REMARK  Name = 8892
REMARK  6 active torsions:
REMARK  status: ('A' for Active; 'I' for Inactive)
REMARK    1  A    between atoms: O_1  and  C_8
REMARK    2  A    between atoms: C_3  and  C_4
REMARK    3  A    between atoms: C_3  and  C_5
REMARK    4  A    between atoms: C_4  and  C_6
REMARK    5  A    between atoms: C_5  and  C_7
REMARK    6  A    between atoms: C_6  and  C_8
REMARK                            x       y       z     vdW  Elec       q    Type
REMARK                         _______ _______ _______ _____ _____    ______ ____
ROOT
ATOM      1  C   UNL     1     -21.370  -1.780   4.942  0.00  0.00    +0.000 C 
ATOM      2  H   UNL     1     -22.046  -2.162   5.719  0.00  0.00    +0.000 HD
ATOM      3  H   UNL     1     -22.011  -1.344   4.165  0.00  0.00    +0.000 HD
ENDROOT
BRANCH   1   4
ATOM      4  C   UNL     1     -20.603  -2.957   4.335  0.00  0.00    +0.000 C 
ATOM      5  H   UNL     1     -21.195  -3.391   3.519  0.00  0.00    +0.000 HD
ATOM      6  H   UNL     1     -19.679  -2.581   3.880  0.00  0.00    +0.000 HD
BRANCH   4   7
ATOM      7  C   UNL     1     -20.268  -4.051   5.349  0.00  0.00    +0.000 C 
ATOM      8  H   UNL     1     -21.184  -4.570   5.652  0.00  0.00    +0.000 HD
ATOM      9  H   UNL     1     -19.800  -3.604   6.233  0.00  0.00    +0.000 HD
BRANCH   7  11
ATOM     10  O   UNL     1     -19.239  -5.402   3.603  0.00  0.00    +0.000 OA
ATOM     11  C   UNL     1     -19.308  -5.072   4.779  0.00  0.00    +0.000 C 
BRANCH  11  12
ATOM     12  O   UNL     1     -18.515  -5.602   5.747  0.00  0.00    +0.000 OA
ATOM     13  H   UNL     1     -17.585  -5.300   5.663  0.00  0.00    +0.000 HD
ENDBRANCH  11  12
ENDBRANCH   7  11
ENDBRANCH   4   7
ENDBRANCH   1   4
BRANCH   1  14
ATOM     14  C   UNL     1     -20.509  -0.666   5.542  0.00  0.00    +0.000 C 
ATOM     15  H   UNL     1     -20.946   0.306   5.285  0.00  0.00    +0.000 HD
ATOM     16  H   UNL     1     -19.512  -0.696   5.087  0.00  0.00    +0.000 HD
BRANCH  14  17
ATOM     17  C   UNL     1     -20.368  -0.755   7.053  0.00  0.00    +0.000 C 
ATOM     18  H   UNL     1     -21.308  -0.479   7.541  0.00  0.00    +0.000 HD
ATOM     19  H   UNL     1     -20.110  -1.773   7.362  0.00  0.00    +0.000 HD
ATOM     20  H   UNL     1     -19.586  -0.079   7.411  0.00  0.00    +0.000 HD
ENDBRANCH  14  17
ENDBRANCH   1  14
TORSDOF 6
ENDMDL
MODEL 2
REMARK VINA RESULT:    -3.915     27.671     28.207
REMARK INTER + INTRA:          -5.251
REMARK INTER:                  -5.029
REMARK INTRA:                  -0.222
REMARK UNBOUND:                -0.191
REMARK  Name = 8892
REMARK  6 active torsions:
REMARK  status: ('A' for Active; 'I' for Inactive)
REMARK    1  A    between atoms: O_1  and  C_8
REMARK    2  A    between atoms: C_3  and  C_4
REMARK    3  A    between atoms: C_3  and  C_5
REMARK    4  A    between atoms: C_4  and  C_6
REMARK    5  A    between atoms: C_5  and  C_7
REMARK    6  A    between atoms: C_6  and  C_8
REMARK                            x       y       z     vdW  Elec       q    Type
REMARK                         _______ _______ _______ _____ _____    ______ ____
ROOT
ATOM      1  C   UNL     1       6.444   8.061   1.548  0.00  0.00    +0.000 C 
ATOM      2  H   UNL     1       7.500   7.966   1.258  0.00  0.00    +0.000 HD
ATOM      3  H   UNL     1       5.928   7.192   1.119  0.00  0.00    +0.000 HD
ENDROOT
BRANCH   1   4
ATOM      4  C   UNL     1       5.872   9.330   0.912  0.00  0.00    +0.000 C 
ATOM      5  H   UNL     1       6.039  10.179   1.586  0.00  0.00    +0.000 HD
ATOM      6  H   UNL     1       6.432   9.549  -0.005  0.00  0.00    +0.000 HD
BRANCH   4   7
ATOM      7  C   UNL     1       4.381   9.229   0.591  0.00  0.00    +0.000 C 
ATOM      8  H   UNL     1       4.025   8.213   0.794  0.00  0.00    +0.000 HD
ATOM      9  H   UNL     1       4.215   9.462  -0.467  0.00  0.00    +0.000 HD
BRANCH   7  11
ATOM     10  O   UNL     1       3.255  11.332   1.083  0.00  0.00    +0.000 OA
ATOM     11  C   UNL     1       3.560  10.195   1.416  0.00  0.00    +0.000 C 
BRANCH  11  12
ATOM     12  O   UNL     1       3.196   9.647   2.605  0.00  0.00    +0.000 OA
ATOM     13  H   UNL     1       3.716   8.840   2.809  0.00  0.00    +0.000 HD
ENDBRANCH  11  12
ENDBRANCH   7  11
ENDBRANCH   4   7
ENDBRANCH   1   4
BRANCH   1  14
ATOM     14  C   UNL     1       6.344   7.980   3.072  0.00  0.00    +0.000 C 
ATOM     15  H   UNL     1       5.939   8.923   3.458  0.00  0.00    +0.000 HD
ATOM     16  H   UNL     1       7.350   7.870   3.496  0.00  0.00    +0.000 HD
BRANCH  14  17
ATOM     17  C   UNL     1       5.472   6.835   3.564  0.00  0.00    +0.000 C 
ATOM     18  H   UNL     1       4.416   7.122   3.535  0.00  0.00    +0.000 HD
ATOM     19  H   UNL     1       5.602   5.948   2.937  0.00  0.00    +0.000 HD
ATOM     20  H   UNL     1       5.725   6.568   4.594  0.00  0.00    +0.000 HD
ENDBRANCH  14  17
ENDBRANCH   1  14
TORSDOF 6
ENDMDL
MODEL 3
REMARK VINA RESULT:    -3.852     29.516     30.137
REMARK INTER + INTRA:          -5.169
REMARK INTER:                  -5.110
REMARK INTRA:                  -0.060
REMARK UNBOUND:                -0.191
REMARK  Name = 8892
REMARK  6 active torsions:
REMARK  status: ('A' for Active; 'I' for Inactive)
REMARK    1  A    between atoms: O_1  and  C_8
REMARK    2  A    between atoms: C_3  and  C_4
REMARK    3  A    between atoms: C_3  and  C_5
REMARK    4  A    between atoms: C_4  and  C_6
REMARK    5  A    between atoms: C_5  and  C_7
REMARK    6  A    between atoms: C_6  and  C_8
REMARK                            x       y       z     vdW  Elec       q    Type
REMARK                         _______ _______ _______ _____ _____    ______ ____
ROOT
ATOM      1  C   UNL     1       7.064  11.069  -1.253  0.00  0.00    +0.000 C 
ATOM      2  H   UNL     1       7.473  12.087  -1.198  0.00  0.00    +0.000 HD
ATOM      3  H   UNL     1       6.527  11.004  -2.209  0.00  0.00    +0.000 HD
ENDROOT
BRANCH   1   4
ATOM      4  C   UNL     1       6.055  10.884  -0.117  0.00  0.00    +0.000 C 
ATOM      5  H   UNL     1       5.385  10.050  -0.361  0.00  0.00    +0.000 HD
ATOM      6  H   UNL     1       6.596  10.588   0.791  0.00  0.00    +0.000 HD
BRANCH   4   7
ATOM      7  C   UNL     1       5.221  12.134   0.166  0.00  0.00    +0.000 C 
ATOM      8  H   UNL     1       5.300  12.830  -0.675  0.00  0.00    +0.000 HD
ATOM      9  H   UNL     1       5.589  12.625   1.073  0.00  0.00    +0.000 HD
BRANCH   7  11
ATOM     10  O   UNL     1       3.281  11.314   1.390  0.00  0.00    +0.000 OA
ATOM     11  C   UNL     1       3.761  11.801   0.375  0.00  0.00    +0.000 C 
BRANCH  11  12
ATOM     12  O   UNL     1       3.021  12.105  -0.724  0.00  0.00    +0.000 OA
ATOM     13  H   UNL     1       2.220  12.623  -0.493  0.00  0.00    +0.000 HD
ENDBRANCH  11  12
ENDBRANCH   7  11
ENDBRANCH   4   7
ENDBRANCH   1   4
BRANCH   1  14
ATOM     14  C   UNL     1       8.224  10.072  -1.279  0.00  0.00    +0.000 C 
ATOM     15  H   UNL     1       8.685  10.029  -0.285  0.00  0.00    +0.000 HD
ATOM     16  H   UNL     1       8.995  10.433  -1.971  0.00  0.00    +0.000 HD
BRANCH  14  17
ATOM     17  C   UNL     1       7.809   8.668  -1.689  0.00  0.00    +0.000 C 
ATOM     18  H   UNL     1       8.597   8.197  -2.286  0.00  0.00    +0.000 HD
ATOM     19  H   UNL     1       7.628   8.042  -0.809  0.00  0.00    +0.000 HD
ATOM     20  H   UNL     1       6.895   8.691  -2.289  0.00  0.00    +0.000 HD
ENDBRANCH  14  17
ENDBRANCH   1  14
TORSDOF 6
ENDMDL
MODEL 4
REMARK VINA RESULT:    -3.824     25.316     25.852
REMARK INTER + INTRA:          -5.133
REMARK INTER:                  -4.933
REMARK INTRA:                  -0.200
REMARK UNBOUND:                -0.191
REMARK  Name = 8892
REMARK  6 active torsions:
REMARK  status: ('A' for Active; 'I' for Inactive)
REMARK    1  A    between atoms: O_1  and  C_8
REMARK    2  A    between atoms: C_3  and  C_4
REMARK    3  A    between atoms: C_3  and  C_5
REMARK    4  A    between atoms: C_4  and  C_6
REMARK    5  A    between atoms: C_5  and  C_7
REMARK    6  A    between atoms: C_6  and  C_8
REMARK                            x       y       z     vdW  Elec       q    Type
REMARK                         _______ _______ _______ _____ _____    ______ ____
ROOT
ATOM      1  C   UNL     1      -3.978   6.953 -11.183  0.00  0.00    +0.000 C 
ATOM      2  H   UNL     1      -3.968   6.221 -12.002  0.00  0.00    +0.000 HD
ATOM      3  H   UNL     1      -4.303   7.904 -11.624  0.00  0.00    +0.000 HD
ENDROOT
BRANCH   1   4
ATOM      4  C   UNL     1      -2.550   7.124 -10.659  0.00  0.00    +0.000 C 
ATOM      5  H   UNL     1      -2.554   7.035  -9.565  0.00  0.00    +0.000 HD
ATOM      6  H   UNL     1      -1.934   6.296 -11.033  0.00  0.00    +0.000 HD
BRANCH   4   7
ATOM      7  C   UNL     1      -1.913   8.457 -11.053  0.00  0.00    +0.000 C 
ATOM      8  H   UNL     1      -2.522   8.946 -11.820  0.00  0.00    +0.000 HD
ATOM      9  H   UNL     1      -0.908   8.281 -11.452  0.00  0.00    +0.000 HD
BRANCH   7  11
ATOM     10  O   UNL     1      -2.523   9.402  -8.893  0.00  0.00    +0.000 OA
ATOM     11  C   UNL     1      -1.790   9.393  -9.872  0.00  0.00    +0.000 C 
BRANCH  11  12
ATOM     12  O   UNL     1      -0.749  10.254 -10.029  0.00  0.00    +0.000 OA
ATOM     13  H   UNL     1       0.081   9.896  -9.647  0.00  0.00    +0.000 HD
ENDBRANCH  11  12
ENDBRANCH   7  11
ENDBRANCH   4   7
ENDBRANCH   1   4
BRANCH   1  14
ATOM     14  C   UNL     1      -5.017   6.519 -10.147  0.00  0.00    +0.000 C 
ATOM     15  H   UNL     1      -5.442   5.552 -10.445  0.00  0.00    +0.000 HD
ATOM     16  H   UNL     1      -5.843   7.240 -10.140  0.00  0.00    +0.000 HD
BRANCH  14  17
ATOM     17  C   UNL     1      -4.456   6.394  -8.739  0.00  0.00    +0.000 C 
ATOM     18  H   UNL     1      -5.247   6.556  -7.999  0.00  0.00    +0.000 HD
ATOM     19  H   UNL     1      -4.033   5.398  -8.574  0.00  0.00    +0.000 HD
ATOM     20  H   UNL     1      -3.670   7.135  -8.566  0.00  0.00    +0.000 HD
ENDBRANCH  14  17
ENDBRANCH   1  14
TORSDOF 6
ENDMDL
MODEL 5
REMARK VINA RESULT:    -3.814     26.381     26.870
REMARK INTER + INTRA:          -5.120
REMARK INTER:                  -4.965
REMARK INTRA:                  -0.155
REMARK UNBOUND:                -0.191
REMARK  Name = 8892
REMARK  6 active torsions:
REMARK  status: ('A' for Active; 'I' for Inactive)
REMARK    1  A    between atoms: O_1  and  C_8
REMARK    2  A    between atoms: C_3  and  C_4
REMARK    3  A    between atoms: C_3  and  C_5
REMARK    4  A    between atoms: C_4  and  C_6
REMARK    5  A    between atoms: C_5  and  C_7
REMARK    6  A    between atoms: C_6  and  C_8
REMARK                            x       y       z     vdW  Elec       q    Type
REMARK                         _______ _______ _______ _____ _____    ______ ____
ROOT
ATOM      1  C   UNL     1      -3.095   6.891  -9.644  0.00  0.00    +0.000 C 
ATOM      2  H   UNL     1      -2.268   6.235  -9.340  0.00  0.00    +0.000 HD
ATOM      3  H   UNL     1      -4.012   6.298  -9.543  0.00  0.00    +0.000 HD
ENDROOT
BRANCH   1   4
ATOM      4  C   UNL     1      -2.913   7.259 -11.119  0.00  0.00    +0.000 C 
ATOM      5  H   UNL     1      -3.732   6.819 -11.704  0.00  0.00    +0.000 HD
ATOM      6  H   UNL     1      -3.008   8.346 -11.227  0.00  0.00    +0.000 HD
BRANCH   4   7
ATOM      7  C   UNL     1      -1.576   6.799 -11.701  0.00  0.00    +0.000 C 
ATOM      8  H   UNL     1      -1.734   5.935 -12.355  0.00  0.00    +0.000 HD
ATOM      9  H   UNL     1      -0.899   6.514 -10.888  0.00  0.00    +0.000 HD
BRANCH   7  11
ATOM     10  O   UNL     1      -0.218   8.791 -12.046  0.00  0.00    +0.000 OA
ATOM     11  C   UNL     1      -0.907   7.891 -12.505  0.00  0.00    +0.000 C 
BRANCH  11  12
ATOM     12  O   UNL     1      -1.171   7.761 -13.832  0.00  0.00    +0.000 OA
ATOM     13  H   UNL     1      -0.788   6.936 -14.202  0.00  0.00    +0.000 HD
ENDBRANCH  11  12
ENDBRANCH   7  11
ENDBRANCH   4   7
ENDBRANCH   1   4
BRANCH   1  14
ATOM     14  C   UNL     1      -3.170   8.070  -8.672  0.00  0.00    +0.000 C 
ATOM     15  H   UNL     1      -2.690   7.790  -7.726  0.00  0.00    +0.000 HD
ATOM     16  H   UNL     1      -4.221   8.283  -8.442  0.00  0.00    +0.000 HD
BRANCH  14  17
ATOM     17  C   UNL     1      -2.512   9.336  -9.198  0.00  0.00    +0.000 C 
ATOM     18  H   UNL     1      -1.425   9.277  -9.080  0.00  0.00    +0.000 HD
ATOM     19  H   UNL     1      -2.732   9.477 -10.261  0.00  0.00    +0.000 HD
ATOM     20  H   UNL     1      -2.868  10.215  -8.654  0.00  0.00    +0.000 HD
ENDBRANCH  14  17
ENDBRANCH   1  14
TORSDOF 6
ENDMDL
MODEL 6
REMARK VINA RESULT:    -3.807     26.794     27.375
REMARK INTER + INTRA:          -5.111
REMARK INTER:                  -4.908
REMARK INTRA:                  -0.203
REMARK UNBOUND:                -0.191
REMARK  Name = 8892
REMARK  6 active torsions:
REMARK  status: ('A' for Active; 'I' for Inactive)
REMARK    1  A    between atoms: O_1  and  C_8
REMARK    2  A    between atoms: C_3  and  C_4
REMARK    3  A    between atoms: C_3  and  C_5
REMARK    4  A    between atoms: C_4  and  C_6
REMARK    5  A    between atoms: C_5  and  C_7
REMARK    6  A    between atoms: C_6  and  C_8
REMARK                            x       y       z     vdW  Elec       q    Type
REMARK                         _______ _______ _______ _____ _____    ______ ____
ROOT
ATOM      1  C   UNL     1      -3.276   8.441 -10.933  0.00  0.00    +0.000 C 
ATOM      2  H   UNL     1      -3.087   8.378 -12.013  0.00  0.00    +0.000 HD
ATOM      3  H   UNL     1      -4.367   8.451 -10.811  0.00  0.00    +0.000 HD
ENDROOT
BRANCH   1   4
ATOM      4  C   UNL     1      -2.717   9.768 -10.413  0.00  0.00    +0.000 C 
ATOM      5  H   UNL     1      -3.171  10.595 -10.974  0.00  0.00    +0.000 HD
ATOM      6  H   UNL     1      -3.026   9.898  -9.369  0.00  0.00    +0.000 HD
BRANCH   4   7
ATOM      7  C   UNL     1      -1.195   9.868 -10.514  0.00  0.00    +0.000 C 
ATOM      8  H   UNL     1      -0.732   9.049  -9.953  0.00  0.00    +0.000 HD
ATOM      9  H   UNL     1      -0.859  10.823 -10.097  0.00  0.00    +0.000 HD
BRANCH   7  11
ATOM     10  O   UNL     1      -1.017  10.575 -12.838  0.00  0.00    +0.000 OA
ATOM     11  C   UNL     1      -0.719   9.791 -11.948  0.00  0.00    +0.000 C 
BRANCH  11  12
ATOM     12  O   UNL     1       0.094   8.720 -12.144  0.00  0.00    +0.000 OA
ATOM     13  H   UNL     1       0.921   8.969 -12.611  0.00  0.00    +0.000 HD
ENDBRANCH  11  12
ENDBRANCH   7  11
ENDBRANCH   4   7
ENDBRANCH   1   4
BRANCH   1  14
ATOM     14  C   UNL     1      -2.725   7.181 -10.262  0.00  0.00    +0.000 C 
ATOM     15  H   UNL     1      -1.675   7.347  -9.991  0.00  0.00    +0.000 HD
ATOM     16  H   UNL     1      -2.739   6.353 -10.982  0.00  0.00    +0.000 HD
BRANCH  14  17
ATOM     17  C   UNL     1      -3.493   6.769  -9.017  0.00  0.00    +0.000 C 
ATOM     18  H   UNL     1      -2.823   6.729  -8.152  0.00  0.00    +0.000 HD
ATOM     19  H   UNL     1      -4.292   7.485  -8.796  0.00  0.00    +0.000 HD
ATOM     20  H   UNL     1      -3.944   5.781  -9.147  0.00  0.00    +0.000 HD
ENDBRANCH  14  17
ENDBRANCH   1  14
TORSDOF 6
ENDMDL
MODEL 7
REMARK VINA RESULT:    -3.591     26.744     27.265
REMARK INTER + INTRA:          -4.832
REMARK INTER:                  -4.594
REMARK INTRA:                  -0.238
REMARK UNBOUND:                -0.191
REMARK  Name = 8892
REMARK  6 active torsions:
REMARK  status: ('A' for Active; 'I' for Inactive)
REMARK    1  A    between atoms: O_1  and  C_8
REMARK    2  A    between atoms: C_3  and  C_4
REMARK    3  A    between atoms: C_3  and  C_5
REMARK    4  A    between atoms: C_4  and  C_6
REMARK    5  A    between atoms: C_5  and  C_7
REMARK    6  A    between atoms: C_6  and  C_8
REMARK                            x       y       z     vdW  Elec       q    Type
REMARK                         _______ _______ _______ _____ _____    ______ ____
ROOT
ATOM      1  C   UNL     1      -2.829   7.053 -11.317  0.00  0.00    +0.000 C 
ATOM      2  H   UNL     1      -3.387   6.358 -11.959  0.00  0.00    +0.000 HD
ATOM      3  H   UNL     1      -3.190   8.059 -11.566  0.00  0.00    +0.000 HD
ENDROOT
BRANCH   1   4
ATOM      4  C   UNL     1      -1.343   6.968 -11.675  0.00  0.00    +0.000 C 
ATOM      5  H   UNL     1      -0.750   6.949 -10.752  0.00  0.00    +0.000 HD
ATOM      6  H   UNL     1      -1.155   6.012 -12.181  0.00  0.00    +0.000 HD
BRANCH   4   7
ATOM      7  C   UNL     1      -0.863   8.119 -12.558  0.00  0.00    +0.000 C 
ATOM      8  H   UNL     1      -1.334   8.051 -13.545  0.00  0.00    +0.000 HD
ATOM      9  H   UNL     1       0.224   8.065 -12.676  0.00  0.00    +0.000 HD
BRANCH   7  11
ATOM     10  O   UNL     1      -0.798   9.888 -10.885  0.00  0.00    +0.000 OA
ATOM     11  C   UNL     1      -1.202   9.467 -11.960  0.00  0.00    +0.000 C 
BRANCH  11  12
ATOM     12  O   UNL     1      -2.034  10.173 -12.770  0.00  0.00    +0.000 OA
ATOM     13  H   UNL     1      -2.908  10.327 -12.351  0.00  0.00    +0.000 HD
ENDBRANCH  11  12
ENDBRANCH   7  11
ENDBRANCH   4   7
ENDBRANCH   1   4
BRANCH   1  14
ATOM     14  C   UNL     1      -3.177   6.761  -9.856  0.00  0.00    +0.000 C 
ATOM     15  H   UNL     1      -2.486   6.004  -9.464  0.00  0.00    +0.000 HD
ATOM     16  H   UNL     1      -4.183   6.328  -9.804  0.00  0.00    +0.000 HD
BRANCH  14  17
ATOM     17  C   UNL     1      -3.118   7.987  -8.960  0.00  0.00    +0.000 C 
ATOM     18  H   UNL     1      -2.122   8.441  -8.999  0.00  0.00    +0.000 HD
ATOM     19  H   UNL     1      -3.848   8.739  -9.279  0.00  0.00    +0.000 HD
ATOM     20  H   UNL     1      -3.331   7.721  -7.921  0.00  0.00    +0.000 HD
ENDBRANCH  14  17
ENDBRANCH   1  14
TORSDOF 6
ENDMDL
MODEL 8
REMARK VINA RESULT:    -3.540     25.939     26.673
REMARK INTER + INTRA:          -4.765
REMARK INTER:                  -4.714
REMARK INTRA:                  -0.051
REMARK UNBOUND:                -0.191
REMARK  Name = 8892
REMARK  6 active torsions:
REMARK  status: ('A' for Active; 'I' for Inactive)
REMARK    1  A    between atoms: O_1  and  C_8
REMARK    2  A    between atoms: C_3  and  C_4
REMARK    3  A    between atoms: C_3  and  C_5
REMARK    4  A    between atoms: C_4  and  C_6
REMARK    5  A    between atoms: C_5  and  C_7
REMARK    6  A    between atoms: C_6  and  C_8
REMARK                            x       y       z     vdW  Elec       q    Type
REMARK                         _______ _______ _______ _____ _____    ______ ____
ROOT
ATOM      1  C   UNL     1      -1.710  -0.337 -11.670  0.00  0.00    +0.000 C 
ATOM      2  H   UNL     1      -2.401  -1.023 -12.179  0.00  0.00    +0.000 HD
ATOM      3  H   UNL     1      -1.974   0.673 -12.007  0.00  0.00    +0.000 HD
ENDROOT
BRANCH   1   4
ATOM      4  C   UNL     1      -0.283  -0.646 -12.130  0.00  0.00    +0.000 C 
ATOM      5  H   UNL     1       0.153  -1.405 -11.468  0.00  0.00    +0.000 HD
ATOM      6  H   UNL     1      -0.324  -1.096 -13.130  0.00  0.00    +0.000 HD
BRANCH   4   7
ATOM      7  C   UNL     1       0.627   0.582 -12.156  0.00  0.00    +0.000 C 
ATOM      8  H   UNL     1       1.002   0.786 -11.148  0.00  0.00    +0.000 HD
ATOM      9  H   UNL     1       0.063   1.451 -12.511  0.00  0.00    +0.000 HD
BRANCH   7  11
ATOM     10  O   UNL     1       2.123   1.123 -14.000  0.00  0.00    +0.000 OA
ATOM     11  C   UNL     1       1.811   0.386 -13.075  0.00  0.00    +0.000 C 
BRANCH  11  12
ATOM     12  O   UNL     1       2.507  -0.737 -12.755  0.00  0.00    +0.000 OA
ATOM     13  H   UNL     1       1.990  -1.333 -12.171  0.00  0.00    +0.000 HD
ENDBRANCH  11  12
ENDBRANCH   7  11
ENDBRANCH   4   7
ENDBRANCH   1   4
BRANCH   1  14
ATOM     14  C   UNL     1      -1.953  -0.423 -10.162  0.00  0.00    +0.000 C 
ATOM     15  H   UNL     1      -1.568   0.485  -9.681  0.00  0.00    +0.000 HD
ATOM     16  H   UNL     1      -1.383  -1.265  -9.751  0.00  0.00    +0.000 HD
BRANCH  14  17
ATOM     17  C   UNL     1      -3.418  -0.589  -9.791  0.00  0.00    +0.000 C 
ATOM     18  H   UNL     1      -4.057  -0.364 -10.651  0.00  0.00    +0.000 HD
ATOM     19  H   UNL     1      -3.626  -1.616  -9.471  0.00  0.00    +0.000 HD
ATOM     20  H   UNL     1      -3.693   0.087  -8.976  0.00  0.00    +0.000 HD
ENDBRANCH  14  17
ENDBRANCH   1  14
TORSDOF 6
ENDMDL
MODEL 9
REMARK VINA RESULT:    -3.531     16.450     17.029
REMARK INTER + INTRA:          -4.754
REMARK INTER:                  -4.681
REMARK INTRA:                  -0.073
REMARK UNBOUND:                -0.191
REMARK  Name = 8892
REMARK  6 active torsions:
REMARK  status: ('A' for Active; 'I' for Inactive)
REMARK    1  A    between atoms: O_1  and  C_8
REMARK    2  A    between atoms: C_3  and  C_4
REMARK    3  A    between atoms: C_3  and  C_5
REMARK    4  A    between atoms: C_4  and  C_6
REMARK    5  A    between atoms: C_5  and  C_7
REMARK    6  A    between atoms: C_6  and  C_8
REMARK                            x       y       z     vdW  Elec       q    Type
REMARK                         _______ _______ _______ _____ _____    ______ ____
ROOT
ATOM      1  C   UNL     1     -10.717   3.992  -5.318  0.00  0.00    +0.000 C 
ATOM      2  H   UNL     1     -10.770   4.454  -6.313  0.00  0.00    +0.000 HD
ATOM      3  H   UNL     1     -11.155   4.716  -4.619  0.00  0.00    +0.000 HD
ENDROOT
BRANCH   1   4
ATOM      4  C   UNL     1      -9.245   3.790  -4.948  0.00  0.00    +0.000 C 
ATOM      5  H   UNL     1      -9.124   3.923  -3.865  0.00  0.00    +0.000 HD
ATOM      6  H   UNL     1      -8.965   2.752  -5.164  0.00  0.00    +0.000 HD
BRANCH   4   7
ATOM      7  C   UNL     1      -8.298   4.740  -5.681  0.00  0.00    +0.000 C 
ATOM      8  H   UNL     1      -8.579   4.802  -6.737  0.00  0.00    +0.000 HD
ATOM      9  H   UNL     1      -7.270   4.368  -5.605  0.00  0.00    +0.000 HD
BRANCH   7  11
ATOM     10  O   UNL     1      -9.019   7.060  -5.507  0.00  0.00    +0.000 OA
ATOM     11  C   UNL     1      -8.334   6.134  -5.095  0.00  0.00    +0.000 C 
BRANCH  11  12
ATOM     12  O   UNL     1      -7.491   6.249  -4.035  0.00  0.00    +0.000 OA
ATOM     13  H   UNL     1      -6.953   5.438  -3.907  0.00  0.00    +0.000 HD
ENDBRANCH  11  12
ENDBRANCH   7  11
ENDBRANCH   4   7
ENDBRANCH   1   4
BRANCH   1  14
ATOM     14  C   UNL     1     -11.581   2.730  -5.314  0.00  0.00    +0.000 C 
ATOM     15  H   UNL     1     -11.159   2.005  -4.607  0.00  0.00    +0.000 HD
ATOM     16  H   UNL     1     -11.543   2.263  -6.306  0.00  0.00    +0.000 HD
BRANCH  14  17
ATOM     17  C   UNL     1     -13.032   2.988  -4.943  0.00  0.00    +0.000 C 
ATOM     18  H   UNL     1     -13.695   2.667  -5.753  0.00  0.00    +0.000 HD
ATOM     19  H   UNL     1     -13.308   2.436  -4.038  0.00  0.00    +0.000 HD
ATOM     20  H   UNL     1     -13.205   4.053  -4.762  0.00  0.00    +0.000 HD
ENDBRANCH  14  17
ENDBRANCH   1  14
TORSDOF 6
ENDMDL
MODEL 10
REMARK VINA RESULT:    -3.476     15.804     17.268
REMARK INTER + INTRA:          -4.683
REMARK INTER:                  -4.492
REMARK INTRA:                  -0.191
REMARK UNBOUND:                -0.191
REMARK  Name = 8892
REMARK  6 active torsions:
REMARK  status: ('A' for Active; 'I' for Inactive)
REMARK    1  A    between atoms: O_1  and  C_8
REMARK    2  A    between atoms: C_3  and  C_4
REMARK    3  A    between atoms: C_3  and  C_5
REMARK    4  A    between atoms: C_4  and  C_6
REMARK    5  A    between atoms: C_5  and  C_7
REMARK    6  A    between atoms: C_6  and  C_8
REMARK                            x       y       z     vdW  Elec       q    Type
REMARK                         _______ _______ _______ _____ _____    ______ ____
ROOT
ATOM      1  C   UNL     1      -8.872 -12.424  17.096  0.00  0.00    +0.000 C 
ATOM      2  H   UNL     1      -8.094 -11.674  17.292  0.00  0.00    +0.000 HD
ATOM      3  H   UNL     1      -8.364 -13.396  17.073  0.00  0.00    +0.000 HD
ENDROOT
BRANCH   1   4
ATOM      4  C   UNL     1      -9.473 -12.157  15.713  0.00  0.00    +0.000 C 
ATOM      5  H   UNL     1      -9.406 -13.071  15.109  0.00  0.00    +0.000 HD
ATOM      6  H   UNL     1     -10.542 -11.941  15.828  0.00  0.00    +0.000 HD
BRANCH   4   7
ATOM      7  C   UNL     1      -8.794 -11.009  14.966  0.00  0.00    +0.000 C 
ATOM      8  H   UNL     1      -8.548 -11.325  13.946  0.00  0.00    +0.000 HD
ATOM      9  H   UNL     1      -7.872 -10.725  15.485  0.00  0.00    +0.000 HD
BRANCH   7  11
ATOM     10  O   UNL     1     -10.865  -9.747  15.190  0.00  0.00    +0.000 OA
ATOM     11  C   UNL     1      -9.680  -9.787  14.886  0.00  0.00    +0.000 C 
BRANCH  11  12
ATOM     12  O   UNL     1      -8.997  -8.709  14.418  0.00  0.00    +0.000 OA
ATOM     13  H   UNL     1      -8.602  -8.882  13.536  0.00  0.00    +0.000 HD
ENDBRANCH  11  12
ENDBRANCH   7  11
ENDBRANCH   4   7
ENDBRANCH   1   4
BRANCH   1  14
ATOM     14  C   UNL     1      -9.863 -12.422  18.261  0.00  0.00    +0.000 C 
ATOM     15  H   UNL     1      -9.568 -11.652  18.985  0.00  0.00    +0.000 HD
ATOM     16  H   UNL     1      -9.810 -13.385  18.782  0.00  0.00    +0.000 HD
BRANCH  14  17
ATOM     17  C   UNL     1     -11.301 -12.168  17.836  0.00  0.00    +0.000 C 
ATOM     18  H   UNL     1     -11.333 -11.442  17.017  0.00  0.00    +0.000 HD
ATOM     19  H   UNL     1     -11.775 -13.092  17.491  0.00  0.00    +0.000 HD
ATOM     20  H   UNL     1     -11.888 -11.769  18.668  0.00  0.00    +0.000 HD
ENDBRANCH  14  17
ENDBRANCH   1  14
TORSDOF 6
ENDMDL
