MODEL 1
REMARK VINA RESULT:    -4.380      0.000      0.000
REMARK INTER + INTRA:          -6.351
REMARK INTER:                  -6.098
REMARK INTRA:                  -0.253
REMARK UNBOUND:                -0.179
REMARK  Name = 8908
REMARK  8 active torsions:
REMARK  status: ('A' for Active; 'I' for Inactive)
REMARK    1  A    between atoms: O_1  and  C_7
REMARK    2  A    between atoms: O_1  and  C_9
REMARK    3  A    between atoms: C_3  and  C_4
REMARK    4  A    between atoms: C_3  and  C_5
REMARK    5  A    between atoms: C_4  and  C_6
REMARK    6  A    between atoms: C_5  and  C_7
REMARK    7  A    between atoms: C_6  and  C_8
REMARK    8  A    between atoms: C_9  and  C_10
REMARK                            x       y       z     vdW  Elec       q    Type
REMARK                         _______ _______ _______ _____ _____    ______ ____
ROOT
ATOM      1  C   UNL     1       5.184   8.168   2.330  0.00  0.00    +0.000 C 
ATOM      2  H   UNL     1       4.771   7.387   1.679  0.00  0.00    +0.000 HD
ATOM      3  H   UNL     1       6.005   8.640   1.776  0.00  0.00    +0.000 HD
ENDROOT
BRANCH   1   4
ATOM      4  C   UNL     1       5.746   7.513   3.596  0.00  0.00    +0.000 C 
ATOM      5  H   UNL     1       4.951   7.446   4.350  0.00  0.00    +0.000 HD
ATOM      6  H   UNL     1       6.045   6.484   3.360  0.00  0.00    +0.000 HD
BRANCH   4   7
ATOM      7  C   UNL     1       6.940   8.264   4.189  0.00  0.00    +0.000 C 
ATOM      8  H   UNL     1       7.768   7.566   4.361  0.00  0.00    +0.000 HD
ATOM      9  H   UNL     1       7.293   9.019   3.477  0.00  0.00    +0.000 HD
BRANCH   7  10
ATOM     10  C   UNL     1       6.574   8.937   5.503  0.00  0.00    +0.000 C 
ATOM     11  H   UNL     1       5.569   8.637   5.814  0.00  0.00    +0.000 HD
ATOM     12  H   UNL     1       7.274   8.655   6.296  0.00  0.00    +0.000 HD
ATOM     13  H   UNL     1       6.588  10.026   5.403  0.00  0.00    +0.000 HD
ENDBRANCH   7  10
ENDBRANCH   4   7
ENDBRANCH   1   4
BRANCH   1  14
ATOM     14  C   UNL     1       4.104   9.210   2.614  0.00  0.00    +0.000 C 
ATOM     15  H   UNL     1       4.550  10.101   3.075  0.00  0.00    +0.000 HD
ATOM     16  H   UNL     1       3.385   8.822   3.345  0.00  0.00    +0.000 HD
BRANCH  14  17
ATOM     17  C   UNL     1       3.367   9.611   1.343  0.00  0.00    +0.000 C 
ATOM     18  H   UNL     1       3.911   9.248   0.463  0.00  0.00    +0.000 HD
ATOM     19  H   UNL     1       2.358   9.181   1.343  0.00  0.00    +0.000 HD
BRANCH  17  20
ATOM     20  O   UNL     1       3.277  11.028   1.291  0.00  0.00    +0.000 OA
BRANCH  20  22
ATOM     21  O   UNL     1       4.918  12.455   0.512  0.00  0.00    +0.000 OA
ATOM     22  C   UNL     1       4.029  11.638   0.324  0.00  0.00    +0.000 C 
BRANCH  22  23
ATOM     23  C   UNL     1       3.603  11.156  -1.031  0.00  0.00    +0.000 C 
ATOM     24  H   UNL     1       3.509  12.004  -1.713  0.00  0.00    +0.000 HD
ATOM     25  H   UNL     1       2.656  10.617  -0.951  0.00  0.00    +0.000 HD
ATOM     26  H   UNL     1       4.360  10.473  -1.426  0.00  0.00    +0.000 HD
ENDBRANCH  22  23
ENDBRANCH  20  22
ENDBRANCH  17  20
ENDBRANCH  14  17
ENDBRANCH   1  14
TORSDOF 8
ENDMDL
MODEL 2
REMARK VINA RESULT:    -4.247     13.990     15.248
REMARK INTER + INTRA:          -6.164
REMARK INTER:                  -5.709
REMARK INTRA:                  -0.455
REMARK UNBOUND:                -0.179
REMARK  Name = 8908
REMARK  8 active torsions:
REMARK  status: ('A' for Active; 'I' for Inactive)
REMARK    1  A    between atoms: O_1  and  C_7
REMARK    2  A    between atoms: O_1  and  C_9
REMARK    3  A    between atoms: C_3  and  C_4
REMARK    4  A    between atoms: C_3  and  C_5
REMARK    5  A    between atoms: C_4  and  C_6
REMARK    6  A    between atoms: C_5  and  C_7
REMARK    7  A    between atoms: C_6  and  C_8
REMARK    8  A    between atoms: C_9  and  C_10
REMARK                            x       y       z     vdW  Elec       q    Type
REMARK                         _______ _______ _______ _____ _____    ______ ____
ROOT
ATOM      1  C   UNL     1      -2.944   8.386  -8.864  0.00  0.00    +0.000 C 
ATOM      2  H   UNL     1      -2.174   8.323  -8.085  0.00  0.00    +0.000 HD
ATOM      3  H   UNL     1      -3.913   8.419  -8.349  0.00  0.00    +0.000 HD
ENDROOT
BRANCH   1   4
ATOM      4  C   UNL     1      -2.882   7.122  -9.728  0.00  0.00    +0.000 C 
ATOM      5  H   UNL     1      -2.028   7.197 -10.413  0.00  0.00    +0.000 HD
ATOM      6  H   UNL     1      -2.691   6.258  -9.079  0.00  0.00    +0.000 HD
BRANCH   4   7
ATOM      7  C   UNL     1      -4.156   6.876 -10.538  0.00  0.00    +0.000 C 
ATOM      8  H   UNL     1      -4.538   5.869 -10.332  0.00  0.00    +0.000 HD
ATOM      9  H   UNL     1      -4.932   7.587 -10.232  0.00  0.00    +0.000 HD
BRANCH   7  10
ATOM     10  C   UNL     1      -3.899   7.016 -12.031  0.00  0.00    +0.000 C 
ATOM     11  H   UNL     1      -2.914   7.458 -12.205  0.00  0.00    +0.000 HD
ATOM     12  H   UNL     1      -3.928   6.041 -12.526  0.00  0.00    +0.000 HD
ATOM     13  H   UNL     1      -4.649   7.662 -12.498  0.00  0.00    +0.000 HD
ENDBRANCH   7  10
ENDBRANCH   4   7
ENDBRANCH   1   4
BRANCH   1  14
ATOM     14  C   UNL     1      -2.752   9.676  -9.659  0.00  0.00    +0.000 C 
ATOM     15  H   UNL     1      -2.943  10.547  -9.019  0.00  0.00    +0.000 HD
ATOM     16  H   UNL     1      -3.488   9.734 -10.471  0.00  0.00    +0.000 HD
BRANCH  14  17
ATOM     17  C   UNL     1      -1.348   9.769 -10.241  0.00  0.00    +0.000 C 
ATOM     18  H   UNL     1      -0.836  10.653  -9.843  0.00  0.00    +0.000 HD
ATOM     19  H   UNL     1      -0.774   8.873  -9.980  0.00  0.00    +0.000 HD
BRANCH  17  20
ATOM     20  O   UNL     1      -1.443   9.876 -11.655  0.00  0.00    +0.000 OA
BRANCH  20  22
ATOM     21  O   UNL     1      -0.421   7.842 -12.052  0.00  0.00    +0.000 OA
ATOM     22  C   UNL     1      -0.680   8.994 -12.371  0.00  0.00    +0.000 C 
BRANCH  22  23
ATOM     23  C   UNL     1      -0.192   9.647 -13.629  0.00  0.00    +0.000 C 
ATOM     24  H   UNL     1      -1.027   9.794 -14.319  0.00  0.00    +0.000 HD
ATOM     25  H   UNL     1       0.585   9.031 -14.089  0.00  0.00    +0.000 HD
ATOM     26  H   UNL     1       0.236  10.625 -13.387  0.00  0.00    +0.000 HD
ENDBRANCH  22  23
ENDBRANCH  20  22
ENDBRANCH  17  20
ENDBRANCH  14  17
ENDBRANCH   1  14
TORSDOF 8
ENDMDL
MODEL 3
REMARK VINA RESULT:    -4.234      1.837      2.564
REMARK INTER + INTRA:          -6.146
REMARK INTER:                  -5.813
REMARK INTRA:                  -0.333
REMARK UNBOUND:                -0.179
REMARK  Name = 8908
REMARK  8 active torsions:
REMARK  status: ('A' for Active; 'I' for Inactive)
REMARK    1  A    between atoms: O_1  and  C_7
REMARK    2  A    between atoms: O_1  and  C_9
REMARK    3  A    between atoms: C_3  and  C_4
REMARK    4  A    between atoms: C_3  and  C_5
REMARK    5  A    between atoms: C_4  and  C_6
REMARK    6  A    between atoms: C_5  and  C_7
REMARK    7  A    between atoms: C_6  and  C_8
REMARK    8  A    between atoms: C_9  and  C_10
REMARK                            x       y       z     vdW  Elec       q    Type
REMARK                         _______ _______ _______ _____ _____    ______ ____
ROOT
ATOM      1  C   UNL     1       7.144   8.862   1.173  0.00  0.00    +0.000 C 
ATOM      2  H   UNL     1       6.106   8.509   1.224  0.00  0.00    +0.000 HD
ATOM      3  H   UNL     1       7.712   8.097   0.630  0.00  0.00    +0.000 HD
ENDROOT
BRANCH   1   4
ATOM      4  C   UNL     1       7.699   8.981   2.597  0.00  0.00    +0.000 C 
ATOM      5  H   UNL     1       8.709   8.554   2.626  0.00  0.00    +0.000 HD
ATOM      6  H   UNL     1       7.797  10.044   2.850  0.00  0.00    +0.000 HD
BRANCH   4   7
ATOM      7  C   UNL     1       6.829   8.289   3.647  0.00  0.00    +0.000 C 
ATOM      8  H   UNL     1       7.465   7.849   4.425  0.00  0.00    +0.000 HD
ATOM      9  H   UNL     1       6.181   9.026   4.136  0.00  0.00    +0.000 HD
BRANCH   7  10
ATOM     10  C   UNL     1       5.974   7.195   3.025  0.00  0.00    +0.000 C 
ATOM     11  H   UNL     1       5.439   7.584   2.153  0.00  0.00    +0.000 HD
ATOM     12  H   UNL     1       6.592   6.354   2.697  0.00  0.00    +0.000 HD
ATOM     13  H   UNL     1       5.234   6.821   3.739  0.00  0.00    +0.000 HD
ENDBRANCH   7  10
ENDBRANCH   4   7
ENDBRANCH   1   4
BRANCH   1  14
ATOM     14  C   UNL     1       7.192  10.174   0.392  0.00  0.00    +0.000 C 
ATOM     15  H   UNL     1       7.924  10.102  -0.424  0.00  0.00    +0.000 HD
ATOM     16  H   UNL     1       7.542  10.988   1.038  0.00  0.00    +0.000 HD
BRANCH  14  17
ATOM     17  C   UNL     1       5.827  10.533  -0.181  0.00  0.00    +0.000 C 
ATOM     18  H   UNL     1       5.634  11.604  -0.046  0.00  0.00    +0.000 HD
ATOM     19  H   UNL     1       5.794  10.294  -1.250  0.00  0.00    +0.000 HD
BRANCH  17  20
ATOM     20  O   UNL     1       4.831   9.784   0.503  0.00  0.00    +0.000 OA
BRANCH  20  22
ATOM     21  O   UNL     1       3.166  10.227   2.042  0.00  0.00    +0.000 OA
ATOM     22  C   UNL     1       3.802  10.511   1.037  0.00  0.00    +0.000 C 
BRANCH  22  23
ATOM     23  C   UNL     1       3.553  11.731   0.202  0.00  0.00    +0.000 C 
ATOM     24  H   UNL     1       4.376  12.440   0.327  0.00  0.00    +0.000 HD
ATOM     25  H   UNL     1       2.603  12.189   0.490  0.00  0.00    +0.000 HD
ATOM     26  H   UNL     1       3.497  11.443  -0.852  0.00  0.00    +0.000 HD
ENDBRANCH  22  23
ENDBRANCH  20  22
ENDBRANCH  17  20
ENDBRANCH  14  17
ENDBRANCH   1  14
TORSDOF 8
ENDMDL
MODEL 4
REMARK VINA RESULT:    -4.214      3.132      4.826
REMARK INTER + INTRA:          -6.118
REMARK INTER:                  -5.681
REMARK INTRA:                  -0.436
REMARK UNBOUND:                -0.179
REMARK  Name = 8908
REMARK  8 active torsions:
REMARK  status: ('A' for Active; 'I' for Inactive)
REMARK    1  A    between atoms: O_1  and  C_7
REMARK    2  A    between atoms: O_1  and  C_9
REMARK    3  A    between atoms: C_3  and  C_4
REMARK    4  A    between atoms: C_3  and  C_5
REMARK    5  A    between atoms: C_4  and  C_6
REMARK    6  A    between atoms: C_5  and  C_7
REMARK    7  A    between atoms: C_6  and  C_8
REMARK    8  A    between atoms: C_9  and  C_10
REMARK                            x       y       z     vdW  Elec       q    Type
REMARK                         _______ _______ _______ _____ _____    ______ ____
ROOT
ATOM      1  C   UNL     1       4.166   9.068   0.426  0.00  0.00    +0.000 C 
ATOM      2  H   UNL     1       4.310   9.264  -0.644  0.00  0.00    +0.000 HD
ATOM      3  H   UNL     1       3.436   8.253   0.504  0.00  0.00    +0.000 HD
ENDROOT
BRANCH   1   4
ATOM      4  C   UNL     1       3.587  10.323   1.088  0.00  0.00    +0.000 C 
ATOM      5  H   UNL     1       2.537  10.140   1.348  0.00  0.00    +0.000 HD
ATOM      6  H   UNL     1       4.119  10.504   2.030  0.00  0.00    +0.000 HD
BRANCH   4   7
ATOM      7  C   UNL     1       3.677  11.570   0.207  0.00  0.00    +0.000 C 
ATOM      8  H   UNL     1       2.959  12.322   0.554  0.00  0.00    +0.000 HD
ATOM      9  H   UNL     1       4.677  12.012   0.293  0.00  0.00    +0.000 HD
BRANCH   7  10
ATOM     10  C   UNL     1       3.391  11.241  -1.250  0.00  0.00    +0.000 C 
ATOM     11  H   UNL     1       2.422  11.651  -1.547  0.00  0.00    +0.000 HD
ATOM     12  H   UNL     1       4.157  11.668  -1.906  0.00  0.00    +0.000 HD
ATOM     13  H   UNL     1       3.366  10.159  -1.410  0.00  0.00    +0.000 HD
ENDBRANCH   7  10
ENDBRANCH   4   7
ENDBRANCH   1   4
BRANCH   1  14
ATOM     14  C   UNL     1       5.491   8.616   1.038  0.00  0.00    +0.000 C 
ATOM     15  H   UNL     1       5.328   7.755   1.700  0.00  0.00    +0.000 HD
ATOM     16  H   UNL     1       5.905   9.408   1.674  0.00  0.00    +0.000 HD
BRANCH  14  17
ATOM     17  C   UNL     1       6.506   8.247  -0.036  0.00  0.00    +0.000 C 
ATOM     18  H   UNL     1       6.761   7.184   0.039  0.00  0.00    +0.000 HD
ATOM     19  H   UNL     1       6.089   8.447  -1.030  0.00  0.00    +0.000 HD
BRANCH  17  20
ATOM     20  O   UNL     1       7.678   9.029   0.151  0.00  0.00    +0.000 OA
BRANCH  20  22
ATOM     21  O   UNL     1       9.114   9.398  -1.620  0.00  0.00    +0.000 OA
ATOM     22  C   UNL     1       8.132   9.695  -0.954  0.00  0.00    +0.000 C 
BRANCH  22  23
ATOM     23  C   UNL     1       7.242  10.866  -1.245  0.00  0.00    +0.000 C 
ATOM     24  H   UNL     1       6.420  10.894  -0.525  0.00  0.00    +0.000 HD
ATOM     25  H   UNL     1       6.860  10.795  -2.266  0.00  0.00    +0.000 HD
ATOM     26  H   UNL     1       7.819  11.791  -1.152  0.00  0.00    +0.000 HD
ENDBRANCH  22  23
ENDBRANCH  20  22
ENDBRANCH  17  20
ENDBRANCH  14  17
ENDBRANCH   1  14
TORSDOF 8
ENDMDL
MODEL 5
REMARK VINA RESULT:    -4.139      2.470      3.980
REMARK INTER + INTRA:          -6.012
REMARK INTER:                  -5.394
REMARK INTRA:                  -0.618
REMARK UNBOUND:                -0.179
REMARK  Name = 8908
REMARK  8 active torsions:
REMARK  status: ('A' for Active; 'I' for Inactive)
REMARK    1  A    between atoms: O_1  and  C_7
REMARK    2  A    between atoms: O_1  and  C_9
REMARK    3  A    between atoms: C_3  and  C_4
REMARK    4  A    between atoms: C_3  and  C_5
REMARK    5  A    between atoms: C_4  and  C_6
REMARK    6  A    between atoms: C_5  and  C_7
REMARK    7  A    between atoms: C_6  and  C_8
REMARK    8  A    between atoms: C_9  and  C_10
REMARK                            x       y       z     vdW  Elec       q    Type
REMARK                         _______ _______ _______ _____ _____    ______ ____
ROOT
ATOM      1  C   UNL     1       7.742   9.688   1.021  0.00  0.00    +0.000 C 
ATOM      2  H   UNL     1       7.341  10.621   1.437  0.00  0.00    +0.000 HD
ATOM      3  H   UNL     1       8.831   9.725   1.153  0.00  0.00    +0.000 HD
ENDROOT
BRANCH   1   4
ATOM      4  C   UNL     1       7.421   9.633  -0.476  0.00  0.00    +0.000 C 
ATOM      5  H   UNL     1       8.300   9.262  -1.018  0.00  0.00    +0.000 HD
ATOM      6  H   UNL     1       6.618   8.903  -0.639  0.00  0.00    +0.000 HD
BRANCH   4   7
ATOM      7  C   UNL     1       7.003  10.984  -1.058  0.00  0.00    +0.000 C 
ATOM      8  H   UNL     1       7.888  11.526  -1.411  0.00  0.00    +0.000 HD
ATOM      9  H   UNL     1       6.349  10.828  -1.924  0.00  0.00    +0.000 HD
BRANCH   7  10
ATOM     10  C   UNL     1       6.280  11.832  -0.022  0.00  0.00    +0.000 C 
ATOM     11  H   UNL     1       6.880  11.910   0.889  0.00  0.00    +0.000 HD
ATOM     12  H   UNL     1       6.102  12.844  -0.401  0.00  0.00    +0.000 HD
ATOM     13  H   UNL     1       5.315  11.390   0.243  0.00  0.00    +0.000 HD
ENDBRANCH   7  10
ENDBRANCH   4   7
ENDBRANCH   1   4
BRANCH   1  14
ATOM     14  C   UNL     1       7.181   8.504   1.807  0.00  0.00    +0.000 C 
ATOM     15  H   UNL     1       7.918   8.153   2.541  0.00  0.00    +0.000 HD
ATOM     16  H   UNL     1       6.999   7.656   1.136  0.00  0.00    +0.000 HD
BRANCH  14  17
ATOM     17  C   UNL     1       5.887   8.870   2.521  0.00  0.00    +0.000 C 
ATOM     18  H   UNL     1       5.865   8.409   3.516  0.00  0.00    +0.000 HD
ATOM     19  H   UNL     1       5.813   9.958   2.628  0.00  0.00    +0.000 HD
BRANCH  17  20
ATOM     20  O   UNL     1       4.789   8.394   1.755  0.00  0.00    +0.000 OA
BRANCH  20  22
ATOM     21  O   UNL     1       3.286  10.105   2.144  0.00  0.00    +0.000 OA
ATOM     22  C   UNL     1       3.865   9.335   1.391  0.00  0.00    +0.000 C 
BRANCH  22  23
ATOM     23  C   UNL     1       3.653   9.294  -0.093  0.00  0.00    +0.000 C 
ATOM     24  H   UNL     1       2.585   9.229  -0.314  0.00  0.00    +0.000 HD
ATOM     25  H   UNL     1       4.188   8.441  -0.519  0.00  0.00    +0.000 HD
ATOM     26  H   UNL     1       4.047  10.211  -0.540  0.00  0.00    +0.000 HD
ENDBRANCH  22  23
ENDBRANCH  20  22
ENDBRANCH  17  20
ENDBRANCH  14  17
ENDBRANCH   1  14
TORSDOF 8
ENDMDL
MODEL 6
REMARK VINA RESULT:    -4.096     14.287     15.499
REMARK INTER + INTRA:          -5.951
REMARK INTER:                  -5.534
REMARK INTRA:                  -0.417
REMARK UNBOUND:                -0.179
REMARK  Name = 8908
REMARK  8 active torsions:
REMARK  status: ('A' for Active; 'I' for Inactive)
REMARK    1  A    between atoms: O_1  and  C_7
REMARK    2  A    between atoms: O_1  and  C_9
REMARK    3  A    between atoms: C_3  and  C_4
REMARK    4  A    between atoms: C_3  and  C_5
REMARK    5  A    between atoms: C_4  and  C_6
REMARK    6  A    between atoms: C_5  and  C_7
REMARK    7  A    between atoms: C_6  and  C_8
REMARK    8  A    between atoms: C_9  and  C_10
REMARK                            x       y       z     vdW  Elec       q    Type
REMARK                         _______ _______ _______ _____ _____    ______ ____
ROOT
ATOM      1  C   UNL     1      -3.590   7.486 -11.087  0.00  0.00    +0.000 C 
ATOM      2  H   UNL     1      -3.295   8.541 -11.027  0.00  0.00    +0.000 HD
ATOM      3  H   UNL     1      -4.633   7.468 -11.430  0.00  0.00    +0.000 HD
ENDROOT
BRANCH   1   4
ATOM      4  C   UNL     1      -3.513   6.866  -9.688  0.00  0.00    +0.000 C 
ATOM      5  H   UNL     1      -4.466   6.371  -9.461  0.00  0.00    +0.000 HD
ATOM      6  H   UNL     1      -2.743   6.084  -9.689  0.00  0.00    +0.000 HD
BRANCH   4   7
ATOM      7  C   UNL     1      -3.201   7.884  -8.590  0.00  0.00    +0.000 C 
ATOM      8  H   UNL     1      -4.086   8.035  -7.961  0.00  0.00    +0.000 HD
ATOM      9  H   UNL     1      -2.404   7.497  -7.943  0.00  0.00    +0.000 HD
BRANCH   7  10
ATOM     10  C   UNL     1      -2.772   9.220  -9.179  0.00  0.00    +0.000 C 
ATOM     11  H   UNL     1      -3.649   9.844  -9.375  0.00  0.00    +0.000 HD
ATOM     12  H   UNL     1      -2.117   9.760  -8.488  0.00  0.00    +0.000 HD
ATOM     13  H   UNL     1      -2.237   9.079 -10.122  0.00  0.00    +0.000 HD
ENDBRANCH   7  10
ENDBRANCH   4   7
ENDBRANCH   1   4
BRANCH   1  14
ATOM     14  C   UNL     1      -2.712   6.775 -12.115  0.00  0.00    +0.000 C 
ATOM     15  H   UNL     1      -3.115   6.924 -13.126  0.00  0.00    +0.000 HD
ATOM     16  H   UNL     1      -2.727   5.692 -11.943  0.00  0.00    +0.000 HD
BRANCH  14  17
ATOM     17  C   UNL     1      -1.274   7.275 -12.063  0.00  0.00    +0.000 C 
ATOM     18  H   UNL     1      -1.175   8.048 -11.292  0.00  0.00    +0.000 HD
ATOM     19  H   UNL     1      -0.597   6.446 -11.830  0.00  0.00    +0.000 HD
BRANCH  17  20
ATOM     20  O   UNL     1      -0.933   7.825 -13.329  0.00  0.00    +0.000 OA
BRANCH  20  22
ATOM     21  O   UNL     1       0.666   9.313 -14.081  0.00  0.00    +0.000 OA
ATOM     22  C   UNL     1      -0.216   8.990 -13.298  0.00  0.00    +0.000 C 
BRANCH  22  23
ATOM     23  C   UNL     1      -0.668   9.836 -12.146  0.00  0.00    +0.000 C 
ATOM     24  H   UNL     1      -0.004  10.697 -12.035  0.00  0.00    +0.000 HD
ATOM     25  H   UNL     1      -0.682   9.238 -11.231  0.00  0.00    +0.000 HD
ATOM     26  H   UNL     1      -1.681  10.200 -12.341  0.00  0.00    +0.000 HD
ENDBRANCH  22  23
ENDBRANCH  20  22
ENDBRANCH  17  20
ENDBRANCH  14  17
ENDBRANCH   1  14
TORSDOF 8
ENDMDL
MODEL 7
REMARK VINA RESULT:    -4.046     14.439     15.568
REMARK INTER + INTRA:          -5.881
REMARK INTER:                  -5.493
REMARK INTRA:                  -0.388
REMARK UNBOUND:                -0.179
REMARK  Name = 8908
REMARK  8 active torsions:
REMARK  status: ('A' for Active; 'I' for Inactive)
REMARK    1  A    between atoms: O_1  and  C_7
REMARK    2  A    between atoms: O_1  and  C_9
REMARK    3  A    between atoms: C_3  and  C_4
REMARK    4  A    between atoms: C_3  and  C_5
REMARK    5  A    between atoms: C_4  and  C_6
REMARK    6  A    between atoms: C_5  and  C_7
REMARK    7  A    between atoms: C_6  and  C_8
REMARK    8  A    between atoms: C_9  and  C_10
REMARK                            x       y       z     vdW  Elec       q    Type
REMARK                         _______ _______ _______ _____ _____    ______ ____
ROOT
ATOM      1  C   UNL     1      -3.696   6.949 -11.484  0.00  0.00    +0.000 C 
ATOM      2  H   UNL     1      -4.235   7.888 -11.309  0.00  0.00    +0.000 HD
ATOM      3  H   UNL     1      -4.453   6.159 -11.563  0.00  0.00    +0.000 HD
ENDROOT
BRANCH   1   4
ATOM      4  C   UNL     1      -2.796   6.661 -10.278  0.00  0.00    +0.000 C 
ATOM      5  H   UNL     1      -2.501   5.605 -10.293  0.00  0.00    +0.000 HD
ATOM      6  H   UNL     1      -1.874   7.248 -10.376  0.00  0.00    +0.000 HD
BRANCH   4   7
ATOM      7  C   UNL     1      -3.459   6.979  -8.936  0.00  0.00    +0.000 C 
ATOM      8  H   UNL     1      -2.816   6.641  -8.115  0.00  0.00    +0.000 HD
ATOM      9  H   UNL     1      -3.578   8.064  -8.830  0.00  0.00    +0.000 HD
BRANCH   7  10
ATOM     10  C   UNL     1      -4.817   6.305  -8.816  0.00  0.00    +0.000 C 
ATOM     11  H   UNL     1      -5.462   6.603  -9.649  0.00  0.00    +0.000 HD
ATOM     12  H   UNL     1      -4.717   5.215  -8.836  0.00  0.00    +0.000 HD
ATOM     13  H   UNL     1      -5.315   6.588  -7.884  0.00  0.00    +0.000 HD
ENDBRANCH   7  10
ENDBRANCH   4   7
ENDBRANCH   1   4
BRANCH   1  14
ATOM     14  C   UNL     1      -2.930   7.046 -12.803  0.00  0.00    +0.000 C 
ATOM     15  H   UNL     1      -3.549   6.669 -13.628  0.00  0.00    +0.000 HD
ATOM     16  H   UNL     1      -2.044   6.400 -12.775  0.00  0.00    +0.000 HD
BRANCH  14  17
ATOM     17  C   UNL     1      -2.506   8.477 -13.099  0.00  0.00    +0.000 C 
ATOM     18  H   UNL     1      -2.490   8.648 -14.182  0.00  0.00    +0.000 HD
ATOM     19  H   UNL     1      -3.207   9.180 -12.635  0.00  0.00    +0.000 HD
BRANCH  17  20
ATOM     20  O   UNL     1      -1.204   8.689 -12.568  0.00  0.00    +0.000 OA
BRANCH  20  22
ATOM     21  O   UNL     1      -0.571  10.898 -12.806  0.00  0.00    +0.000 OA
ATOM     22  C   UNL     1      -0.942   9.956 -12.121  0.00  0.00    +0.000 C 
BRANCH  22  23
ATOM     23  C   UNL     1      -1.176  10.032 -10.643  0.00  0.00    +0.000 C 
ATOM     24  H   UNL     1      -1.411   9.039 -10.252  0.00  0.00    +0.000 HD
ATOM     25  H   UNL     1      -1.989  10.732 -10.433  0.00  0.00    +0.000 HD
ATOM     26  H   UNL     1      -0.269  10.394 -10.151  0.00  0.00    +0.000 HD
ENDBRANCH  22  23
ENDBRANCH  20  22
ENDBRANCH  17  20
ENDBRANCH  14  17
ENDBRANCH   1  14
TORSDOF 8
ENDMDL
MODEL 8
REMARK VINA RESULT:    -4.002     13.171     14.666
REMARK INTER + INTRA:          -5.819
REMARK INTER:                  -5.515
REMARK INTRA:                  -0.304
REMARK UNBOUND:                -0.179
REMARK  Name = 8908
REMARK  8 active torsions:
REMARK  status: ('A' for Active; 'I' for Inactive)
REMARK    1  A    between atoms: O_1  and  C_7
REMARK    2  A    between atoms: O_1  and  C_9
REMARK    3  A    between atoms: C_3  and  C_4
REMARK    4  A    between atoms: C_3  and  C_5
REMARK    5  A    between atoms: C_4  and  C_6
REMARK    6  A    between atoms: C_5  and  C_7
REMARK    7  A    between atoms: C_6  and  C_8
REMARK    8  A    between atoms: C_9  and  C_10
REMARK                            x       y       z     vdW  Elec       q    Type
REMARK                         _______ _______ _______ _____ _____    ______ ____
ROOT
ATOM      1  C   UNL     1      -8.477  10.643   6.648  0.00  0.00    +0.000 C 
ATOM      2  H   UNL     1      -7.522  10.102   6.669  0.00  0.00    +0.000 HD
ATOM      3  H   UNL     1      -9.269   9.889   6.725  0.00  0.00    +0.000 HD
ENDROOT
BRANCH   1   4
ATOM      4  C   UNL     1      -8.607  11.370   5.306  0.00  0.00    +0.000 C 
ATOM      5  H   UNL     1      -9.259  10.788   4.643  0.00  0.00    +0.000 HD
ATOM      6  H   UNL     1      -9.106  12.333   5.472  0.00  0.00    +0.000 HD
BRANCH   4   7
ATOM      7  C   UNL     1      -7.266  11.608   4.611  0.00  0.00    +0.000 C 
ATOM      8  H   UNL     1      -6.564  10.808   4.874  0.00  0.00    +0.000 HD
ATOM      9  H   UNL     1      -7.401  11.578   3.523  0.00  0.00    +0.000 HD
BRANCH   7  10
ATOM     10  C   UNL     1      -6.665  12.948   5.010  0.00  0.00    +0.000 C 
ATOM     11  H   UNL     1      -7.459  13.676   5.201  0.00  0.00    +0.000 HD
ATOM     12  H   UNL     1      -6.065  12.852   5.921  0.00  0.00    +0.000 HD
ATOM     13  H   UNL     1      -6.025  13.343   4.216  0.00  0.00    +0.000 HD
ENDBRANCH   7  10
ENDBRANCH   4   7
ENDBRANCH   1   4
BRANCH   1  14
ATOM     14  C   UNL     1      -8.552  11.577   7.855  0.00  0.00    +0.000 C 
ATOM     15  H   UNL     1      -9.272  12.384   7.664  0.00  0.00    +0.000 HD
ATOM     16  H   UNL     1      -7.585  12.070   8.014  0.00  0.00    +0.000 HD
BRANCH  14  17
ATOM     17  C   UNL     1      -8.952  10.827   9.118  0.00  0.00    +0.000 C 
ATOM     18  H   UNL     1      -9.819  11.311   9.583  0.00  0.00    +0.000 HD
ATOM     19  H   UNL     1      -9.208   9.790   8.873  0.00  0.00    +0.000 HD
BRANCH  17  20
ATOM     20  O   UNL     1      -7.859  10.842  10.027  0.00  0.00    +0.000 OA
BRANCH  20  22
ATOM     21  O   UNL     1      -5.893   9.642  10.194  0.00  0.00    +0.000 OA
ATOM     22  C   UNL     1      -7.108   9.700  10.074  0.00  0.00    +0.000 C 
BRANCH  22  23
ATOM     23  C   UNL     1      -7.998   8.500   9.954  0.00  0.00    +0.000 C 
ATOM     24  H   UNL     1      -7.392   7.597   9.845  0.00  0.00    +0.000 HD
ATOM     25  H   UNL     1      -8.668   8.620   9.099  0.00  0.00    +0.000 HD
ATOM     26  H   UNL     1      -8.603   8.406  10.861  0.00  0.00    +0.000 HD
ENDBRANCH  22  23
ENDBRANCH  20  22
ENDBRANCH  17  20
ENDBRANCH  14  17
ENDBRANCH   1  14
TORSDOF 8
ENDMDL
MODEL 9
REMARK VINA RESULT:    -3.857     27.978     28.656
REMARK INTER + INTRA:          -5.615
REMARK INTER:                  -5.225
REMARK INTRA:                  -0.390
REMARK UNBOUND:                -0.179
REMARK  Name = 8908
REMARK  8 active torsions:
REMARK  status: ('A' for Active; 'I' for Inactive)
REMARK    1  A    between atoms: O_1  and  C_7
REMARK    2  A    between atoms: O_1  and  C_9
REMARK    3  A    between atoms: C_3  and  C_4
REMARK    4  A    between atoms: C_3  and  C_5
REMARK    5  A    between atoms: C_4  and  C_6
REMARK    6  A    between atoms: C_5  and  C_7
REMARK    7  A    between atoms: C_6  and  C_8
REMARK    8  A    between atoms: C_9  and  C_10
REMARK                            x       y       z     vdW  Elec       q    Type
REMARK                         _______ _______ _______ _____ _____    ______ ____
ROOT
ATOM      1  C   UNL     1     -21.649  -2.464   5.477  0.00  0.00    +0.000 C 
ATOM      2  H   UNL     1     -22.561  -1.925   5.764  0.00  0.00    +0.000 HD
ATOM      3  H   UNL     1     -21.939  -3.508   5.306  0.00  0.00    +0.000 HD
ENDROOT
BRANCH   1   4
ATOM      4  C   UNL     1     -20.651  -2.406   6.637  0.00  0.00    +0.000 C 
ATOM      5  H   UNL     1     -21.019  -3.030   7.461  0.00  0.00    +0.000 HD
ATOM      6  H   UNL     1     -19.700  -2.846   6.309  0.00  0.00    +0.000 HD
BRANCH   4   7
ATOM      7  C   UNL     1     -20.400  -0.988   7.153  0.00  0.00    +0.000 C 
ATOM      8  H   UNL     1     -19.427  -0.941   7.655  0.00  0.00    +0.000 HD
ATOM      9  H   UNL     1     -20.365  -0.288   6.310  0.00  0.00    +0.000 HD
BRANCH   7  10
ATOM     10  C   UNL     1     -21.485  -0.554   8.128  0.00  0.00    +0.000 C 
ATOM     11  H   UNL     1     -22.471  -0.839   7.748  0.00  0.00    +0.000 HD
ATOM     12  H   UNL     1     -21.346  -1.028   9.104  0.00  0.00    +0.000 HD
ATOM     13  H   UNL     1     -21.475   0.531   8.267  0.00  0.00    +0.000 HD
ENDBRANCH   7  10
ENDBRANCH   4   7
ENDBRANCH   1   4
BRANCH   1  14
ATOM     14  C   UNL     1     -21.104  -1.875   4.177  0.00  0.00    +0.000 C 
ATOM     15  H   UNL     1     -20.111  -1.438   4.346  0.00  0.00    +0.000 HD
ATOM     16  H   UNL     1     -21.741  -1.048   3.839  0.00  0.00    +0.000 HD
BRANCH  14  17
ATOM     17  C   UNL     1     -21.016  -2.927   3.080  0.00  0.00    +0.000 C 
ATOM     18  H   UNL     1     -21.964  -2.978   2.532  0.00  0.00    +0.000 HD
ATOM     19  H   UNL     1     -20.210  -2.675   2.382  0.00  0.00    +0.000 HD
BRANCH  17  20
ATOM     20  O   UNL     1     -20.748  -4.190   3.676  0.00  0.00    +0.000 OA
BRANCH  20  22
ATOM     21  O   UNL     1     -18.866  -4.626   2.409  0.00  0.00    +0.000 OA
ATOM     22  C   UNL     1     -19.498  -4.699   3.453  0.00  0.00    +0.000 C 
BRANCH  22  23
ATOM     23  C   UNL     1     -18.995  -5.377   4.693  0.00  0.00    +0.000 C 
ATOM     24  H   UNL     1     -18.939  -6.456   4.529  0.00  0.00    +0.000 HD
ATOM     25  H   UNL     1     -19.655  -5.147   5.533  0.00  0.00    +0.000 HD
ATOM     26  H   UNL     1     -17.993  -5.007   4.926  0.00  0.00    +0.000 HD
ENDBRANCH  22  23
ENDBRANCH  20  22
ENDBRANCH  17  20
ENDBRANCH  14  17
ENDBRANCH   1  14
TORSDOF 8
ENDMDL
MODEL 10
REMARK VINA RESULT:    -3.803     14.341     15.820
REMARK INTER + INTRA:          -5.539
REMARK INTER:                  -5.360
REMARK INTRA:                  -0.179
REMARK UNBOUND:                -0.179
REMARK  Name = 8908
REMARK  8 active torsions:
REMARK  status: ('A' for Active; 'I' for Inactive)
REMARK    1  A    between atoms: O_1  and  C_7
REMARK    2  A    between atoms: O_1  and  C_9
REMARK    3  A    between atoms: C_3  and  C_4
REMARK    4  A    between atoms: C_3  and  C_5
REMARK    5  A    between atoms: C_4  and  C_6
REMARK    6  A    between atoms: C_5  and  C_7
REMARK    7  A    between atoms: C_6  and  C_8
REMARK    8  A    between atoms: C_9  and  C_10
REMARK                            x       y       z     vdW  Elec       q    Type
REMARK                         _______ _______ _______ _____ _____    ______ ____
ROOT
ATOM      1  C   UNL     1      -8.389  10.987   6.922  0.00  0.00    +0.000 C 
ATOM      2  H   UNL     1      -8.992  11.711   7.485  0.00  0.00    +0.000 HD
ATOM      3  H   UNL     1      -7.341  11.177   7.186  0.00  0.00    +0.000 HD
ENDROOT
BRANCH   1   4
ATOM      4  C   UNL     1      -8.581  11.238   5.423  0.00  0.00    +0.000 C 
ATOM      5  H   UNL     1      -9.050  10.357   4.968  0.00  0.00    +0.000 HD
ATOM      6  H   UNL     1      -9.282  12.072   5.291  0.00  0.00    +0.000 HD
BRANCH   4   7
ATOM      7  C   UNL     1      -7.277  11.552   4.688  0.00  0.00    +0.000 C 
ATOM      8  H   UNL     1      -6.522  10.796   4.932  0.00  0.00    +0.000 HD
ATOM      9  H   UNL     1      -7.443  11.508   3.605  0.00  0.00    +0.000 HD
BRANCH   7  10
ATOM     10  C   UNL     1      -6.746  12.927   5.064  0.00  0.00    +0.000 C 
ATOM     11  H   UNL     1      -7.565  13.652   5.099  0.00  0.00    +0.000 HD
ATOM     12  H   UNL     1      -6.268  12.906   6.049  0.00  0.00    +0.000 HD
ATOM     13  H   UNL     1      -6.012  13.278   4.333  0.00  0.00    +0.000 HD
ENDBRANCH   7  10
ENDBRANCH   4   7
ENDBRANCH   1   4
BRANCH   1  14
ATOM     14  C   UNL     1      -8.768   9.572   7.355  0.00  0.00    +0.000 C 
ATOM     15  H   UNL     1      -8.082   8.842   6.904  0.00  0.00    +0.000 HD
ATOM     16  H   UNL     1      -9.766   9.315   6.980  0.00  0.00    +0.000 HD
BRANCH  14  17
ATOM     17  C   UNL     1      -8.743   9.425   8.870  0.00  0.00    +0.000 C 
ATOM     18  H   UNL     1      -8.489   8.394   9.142  0.00  0.00    +0.000 HD
ATOM     19  H   UNL     1      -7.997  10.103   9.300  0.00  0.00    +0.000 HD
BRANCH  17  20
ATOM     20  O   UNL     1     -10.028   9.747   9.384  0.00  0.00    +0.000 OA
BRANCH  20  22
ATOM     21  O   UNL     1     -11.269   9.558  11.323  0.00  0.00    +0.000 OA
ATOM     22  C   UNL     1     -10.315   9.246  10.625  0.00  0.00    +0.000 C 
BRANCH  22  23
ATOM     23  C   UNL     1      -9.277   8.239  11.020  0.00  0.00    +0.000 C 
ATOM     24  H   UNL     1      -9.018   8.369  12.074  0.00  0.00    +0.000 HD
ATOM     25  H   UNL     1      -8.393   8.352  10.388  0.00  0.00    +0.000 HD
ATOM     26  H   UNL     1      -9.680   7.232  10.882  0.00  0.00    +0.000 HD
ENDBRANCH  22  23
ENDBRANCH  20  22
ENDBRANCH  17  20
ENDBRANCH  14  17
ENDBRANCH   1  14
TORSDOF 8
ENDMDL
