MODEL 1
REMARK VINA RESULT:    -5.532      0.000      0.000
REMARK INTER + INTRA:          -5.532
REMARK INTER:                  -5.532
REMARK INTRA:                   0.000
REMARK UNBOUND:                 0.000
REMARK  Name = 798
REMARK  0 active torsions:
REMARK  status: ('A' for Active; 'I' for Inactive)
REMARK                            x       y       z     vdW  Elec       q    Type
REMARK                         _______ _______ _______ _____ _____    ______ ____
ROOT
ATOM      1  N   UNL     1      -0.899   9.703 -11.287  0.00  0.00    +0.000 N 
ATOM      2  C   UNL     1      -1.721   8.938 -10.492  0.00  0.00    +0.000 A 
ATOM      3  C   UNL     1      -1.871   7.701 -11.125  0.00  0.00    +0.000 A 
ATOM      4  C   UNL     1      -1.109   7.753 -12.326  0.00  0.00    +0.000 A 
ATOM      5  C   UNL     1      -2.338   9.241  -9.273  0.00  0.00    +0.000 A 
ATOM      6  C   UNL     1      -2.674   6.719 -10.513  0.00  0.00    +0.000 A 
ATOM      7  C   UNL     1      -0.524   8.997 -12.398  0.00  0.00    +0.000 A 
ATOM      8  C   UNL     1      -3.131   8.251  -8.686  0.00  0.00    +0.000 A 
ATOM      9  C   UNL     1      -3.297   7.008  -9.294  0.00  0.00    +0.000 A 
ATOM     10  H   UNL     1      -0.614  10.651 -11.080  0.00  0.00    +0.000 HD
ATOM     11  H   UNL     1      -1.000   6.967 -13.060  0.00  0.00    +0.000 HD
ATOM     12  H   UNL     1      -2.210  10.207  -8.798  0.00  0.00    +0.000 HD
ATOM     13  H   UNL     1      -2.812   5.747 -10.977  0.00  0.00    +0.000 HD
ATOM     14  H   UNL     1       0.125   9.441 -13.139  0.00  0.00    +0.000 HD
ATOM     15  H   UNL     1      -3.624   8.454  -7.738  0.00  0.00    +0.000 HD
ATOM     16  H   UNL     1      -3.918   6.254  -8.818  0.00  0.00    +0.000 HD
ENDROOT
TORSDOF 0
ENDMDL
MODEL 2
REMARK VINA RESULT:    -5.412      0.976      2.029
REMARK INTER + INTRA:          -5.412
REMARK INTER:                  -5.412
REMARK INTRA:                   0.000
REMARK UNBOUND:                 0.000
REMARK  Name = 798
REMARK  0 active torsions:
REMARK  status: ('A' for Active; 'I' for Inactive)
REMARK                            x       y       z     vdW  Elec       q    Type
REMARK                         _______ _______ _______ _____ _____    ______ ____
ROOT
ATOM      1  N   UNL     1      -1.497   8.787 -12.176  0.00  0.00    +0.000 N 
ATOM      2  C   UNL     1      -2.160   8.251 -11.095  0.00  0.00    +0.000 A 
ATOM      3  C   UNL     1      -2.035   9.161 -10.043  0.00  0.00    +0.000 A 
ATOM      4  C   UNL     1      -1.274  10.261 -10.531  0.00  0.00    +0.000 A 
ATOM      5  C   UNL     1      -2.853   7.043 -10.969  0.00  0.00    +0.000 A 
ATOM      6  C   UNL     1      -2.631   8.852  -8.804  0.00  0.00    +0.000 A 
ATOM      7  C   UNL     1      -0.958  10.001 -11.845  0.00  0.00    +0.000 A 
ATOM      8  C   UNL     1      -3.436   6.757  -9.731  0.00  0.00    +0.000 A 
ATOM      9  C   UNL     1      -3.328   7.647  -8.664  0.00  0.00    +0.000 A 
ATOM     10  H   UNL     1      -1.419   8.347 -13.083  0.00  0.00    +0.000 HD
ATOM     11  H   UNL     1      -0.988  11.146  -9.981  0.00  0.00    +0.000 HD
ATOM     12  H   UNL     1      -2.939   6.349 -11.799  0.00  0.00    +0.000 HD
ATOM     13  H   UNL     1      -2.554   9.537  -7.965  0.00  0.00    +0.000 HD
ATOM     14  H   UNL     1      -0.399  10.572 -12.572  0.00  0.00    +0.000 HD
ATOM     15  H   UNL     1      -3.983   5.826  -9.600  0.00  0.00    +0.000 HD
ATOM     16  H   UNL     1      -3.790   7.403  -7.711  0.00  0.00    +0.000 HD
ENDROOT
TORSDOF 0
ENDMDL
MODEL 3
REMARK VINA RESULT:    -5.016     13.391     13.985
REMARK INTER + INTRA:          -5.016
REMARK INTER:                  -5.016
REMARK INTRA:                   0.000
REMARK UNBOUND:                 0.000
REMARK  Name = 798
REMARK  0 active torsions:
REMARK  status: ('A' for Active; 'I' for Inactive)
REMARK                            x       y       z     vdW  Elec       q    Type
REMARK                         _______ _______ _______ _____ _____    ______ ____
ROOT
ATOM      1  N   UNL     1       8.852   8.058  -1.558  0.00  0.00    +0.000 N 
ATOM      2  C   UNL     1       7.763   8.579  -0.899  0.00  0.00    +0.000 A 
ATOM      3  C   UNL     1       7.999   9.946  -0.729  0.00  0.00    +0.000 A 
ATOM      4  C   UNL     1       9.268  10.224  -1.310  0.00  0.00    +0.000 A 
ATOM      5  C   UNL     1       6.597   7.953  -0.444  0.00  0.00    +0.000 A 
ATOM      6  C   UNL     1       7.027  10.726  -0.074  0.00  0.00    +0.000 A 
ATOM      7  C   UNL     1       9.768   9.044  -1.811  0.00  0.00    +0.000 A 
ATOM      8  C   UNL     1       5.646   8.748   0.203  0.00  0.00    +0.000 A 
ATOM      9  C   UNL     1       5.856  10.113   0.387  0.00  0.00    +0.000 A 
ATOM     10  H   UNL     1       8.961   7.087  -1.818  0.00  0.00    +0.000 HD
ATOM     11  H   UNL     1       9.764  11.184  -1.356  0.00  0.00    +0.000 HD
ATOM     12  H   UNL     1       6.432   6.890  -0.586  0.00  0.00    +0.000 HD
ATOM     13  H   UNL     1       7.178  11.791   0.076  0.00  0.00    +0.000 HD
ATOM     14  H   UNL     1      10.692   8.819  -2.325  0.00  0.00    +0.000 HD
ATOM     15  H   UNL     1       4.729   8.292   0.569  0.00  0.00    +0.000 HD
ATOM     16  H   UNL     1       5.102  10.710   0.893  0.00  0.00    +0.000 HD
ENDROOT
TORSDOF 0
ENDMDL
MODEL 4
REMARK VINA RESULT:    -4.969     13.066     13.211
REMARK INTER + INTRA:          -4.969
REMARK INTER:                  -4.969
REMARK INTRA:                   0.000
REMARK UNBOUND:                 0.000
REMARK  Name = 798
REMARK  0 active torsions:
REMARK  status: ('A' for Active; 'I' for Inactive)
REMARK                            x       y       z     vdW  Elec       q    Type
REMARK                         _______ _______ _______ _____ _____    ______ ____
ROOT
ATOM      1  N   UNL     1       6.805   8.903  -0.444  0.00  0.00    +0.000 N 
ATOM      2  C   UNL     1       5.685   9.500   0.088  0.00  0.00    +0.000 A 
ATOM      3  C   UNL     1       5.653  10.814  -0.387  0.00  0.00    +0.000 A 
ATOM      4  C   UNL     1       6.794  10.982  -1.222  0.00  0.00    +0.000 A 
ATOM      5  C   UNL     1       4.706   8.985   0.944  0.00  0.00    +0.000 A 
ATOM      6  C   UNL     1       4.595  11.654   0.010  0.00  0.00    +0.000 A 
ATOM      7  C   UNL     1       7.482   9.790  -1.236  0.00  0.00    +0.000 A 
ATOM      8  C   UNL     1       3.666   9.837   1.325  0.00  0.00    +0.000 A 
ATOM      9  C   UNL     1       3.609  11.152   0.867  0.00  0.00    +0.000 A 
ATOM     10  H   UNL     1       7.087   7.947  -0.273  0.00  0.00    +0.000 HD
ATOM     11  H   UNL     1       7.082  11.877  -1.755  0.00  0.00    +0.000 HD
ATOM     12  H   UNL     1       4.748   7.962   1.303  0.00  0.00    +0.000 HD
ATOM     13  H   UNL     1       4.540  12.681  -0.340  0.00  0.00    +0.000 HD
ATOM     14  H   UNL     1       8.392   9.496  -1.740  0.00  0.00    +0.000 HD
ATOM     15  H   UNL     1       2.888   9.467   1.990  0.00  0.00    +0.000 HD
ATOM     16  H   UNL     1       2.790  11.795   1.177  0.00  0.00    +0.000 HD
ENDROOT
TORSDOF 0
ENDMDL
MODEL 5
REMARK VINA RESULT:    -4.882      9.119     10.094
REMARK INTER + INTRA:          -4.882
REMARK INTER:                  -4.882
REMARK INTRA:                   0.000
REMARK UNBOUND:                 0.000
REMARK  Name = 798
REMARK  0 active torsions:
REMARK  status: ('A' for Active; 'I' for Inactive)
REMARK                            x       y       z     vdW  Elec       q    Type
REMARK                         _______ _______ _______ _____ _____    ______ ____
ROOT
ATOM      1  N   UNL     1      -9.519   7.682  -5.398  0.00  0.00    +0.000 N 
ATOM      2  C   UNL     1      -9.385   6.322  -5.237  0.00  0.00    +0.000 A 
ATOM      3  C   UNL     1     -10.636   5.752  -5.487  0.00  0.00    +0.000 A 
ATOM      4  C   UNL     1     -11.523   6.819  -5.803  0.00  0.00    +0.000 A 
ATOM      5  C   UNL     1      -8.264   5.558  -4.893  0.00  0.00    +0.000 A 
ATOM      6  C   UNL     1     -10.776   4.354  -5.390  0.00  0.00    +0.000 A 
ATOM      7  C   UNL     1     -10.807   7.993  -5.740  0.00  0.00    +0.000 A 
ATOM      8  C   UNL     1      -8.427   4.173  -4.802  0.00  0.00    +0.000 A 
ATOM      9  C   UNL     1      -9.664   3.578  -5.046  0.00  0.00    +0.000 A 
ATOM     10  H   UNL     1      -8.772   8.354  -5.280  0.00  0.00    +0.000 HD
ATOM     11  H   UNL     1     -12.572   6.739  -6.051  0.00  0.00    +0.000 HD
ATOM     12  H   UNL     1      -7.300   6.019  -4.702  0.00  0.00    +0.000 HD
ATOM     13  H   UNL     1     -11.734   3.878  -5.578  0.00  0.00    +0.000 HD
ATOM     14  H   UNL     1     -11.100   9.020  -5.908  0.00  0.00    +0.000 HD
ATOM     15  H   UNL     1      -7.576   3.551  -4.536  0.00  0.00    +0.000 HD
ATOM     16  H   UNL     1      -9.766   2.499  -4.969  0.00  0.00    +0.000 HD
ENDROOT
TORSDOF 0
ENDMDL
MODEL 6
REMARK VINA RESULT:    -4.784     17.253     18.939
REMARK INTER + INTRA:          -4.784
REMARK INTER:                  -4.784
REMARK INTRA:                   0.000
REMARK UNBOUND:                 0.000
REMARK  Name = 798
REMARK  0 active torsions:
REMARK  status: ('A' for Active; 'I' for Inactive)
REMARK                            x       y       z     vdW  Elec       q    Type
REMARK                         _______ _______ _______ _____ _____    ______ ____
ROOT
ATOM      1  N   UNL     1      -8.358  11.645   8.641  0.00  0.00    +0.000 N 
ATOM      2  C   UNL     1      -7.898  11.965   7.384  0.00  0.00    +0.000 A 
ATOM      3  C   UNL     1      -8.307  10.944   6.523  0.00  0.00    +0.000 A 
ATOM      4  C   UNL     1      -9.028  10.000   7.309  0.00  0.00    +0.000 A 
ATOM      5  C   UNL     1      -7.159  13.070   6.946  0.00  0.00    +0.000 A 
ATOM      6  C   UNL     1      -7.962  11.027   5.160  0.00  0.00    +0.000 A 
ATOM      7  C   UNL     1      -9.042  10.459   8.606  0.00  0.00    +0.000 A 
ATOM      8  C   UNL     1      -6.829  13.131   5.590  0.00  0.00    +0.000 A 
ATOM      9  C   UNL     1      -7.223  12.126   4.708  0.00  0.00    +0.000 A 
ATOM     10  H   UNL     1      -8.212  12.205   9.470  0.00  0.00    +0.000 HD
ATOM     11  H   UNL     1      -9.486   9.085   6.964  0.00  0.00    +0.000 HD
ATOM     12  H   UNL     1      -6.852  13.853   7.631  0.00  0.00    +0.000 HD
ATOM     13  H   UNL     1      -8.263  10.250   4.463  0.00  0.00    +0.000 HD
ATOM     14  H   UNL     1      -9.477  10.048   9.506  0.00  0.00    +0.000 HD
ATOM     15  H   UNL     1      -6.255  13.976   5.217  0.00  0.00    +0.000 HD
ATOM     16  H   UNL     1      -6.954  12.196   3.658  0.00  0.00    +0.000 HD
ENDROOT
TORSDOF 0
ENDMDL
MODEL 7
REMARK VINA RESULT:    -4.640      1.445      3.406
REMARK INTER + INTRA:          -4.640
REMARK INTER:                  -4.640
REMARK INTRA:                   0.000
REMARK UNBOUND:                 0.000
REMARK  Name = 798
REMARK  0 active torsions:
REMARK  status: ('A' for Active; 'I' for Inactive)
REMARK                            x       y       z     vdW  Elec       q    Type
REMARK                         _______ _______ _______ _____ _____    ______ ____
ROOT
ATOM      1  N   UNL     1      -2.682   8.195  -9.600  0.00  0.00    +0.000 N 
ATOM      2  C   UNL     1      -2.185   7.945 -10.859  0.00  0.00    +0.000 A 
ATOM      3  C   UNL     1      -1.403   9.046 -11.219  0.00  0.00    +0.000 A 
ATOM      4  C   UNL     1      -1.449   9.963 -10.132  0.00  0.00    +0.000 A 
ATOM      5  C   UNL     1      -2.365   6.841 -11.699  0.00  0.00    +0.000 A 
ATOM      6  C   UNL     1      -0.770   9.045 -12.477  0.00  0.00    +0.000 A 
ATOM      7  C   UNL     1      -2.243   9.412  -9.152  0.00  0.00    +0.000 A 
ATOM      8  C   UNL     1      -1.727   6.863 -12.942  0.00  0.00    +0.000 A 
ATOM      9  C   UNL     1      -0.941   7.948 -13.328  0.00  0.00    +0.000 A 
ATOM     10  H   UNL     1      -3.284   7.570  -9.082  0.00  0.00    +0.000 HD
ATOM     11  H   UNL     1      -0.956  10.923 -10.072  0.00  0.00    +0.000 HD
ATOM     12  H   UNL     1      -2.976   5.996 -11.401  0.00  0.00    +0.000 HD
ATOM     13  H   UNL     1      -0.155   9.884 -12.790  0.00  0.00    +0.000 HD
ATOM     14  H   UNL     1      -2.534   9.778  -8.177  0.00  0.00    +0.000 HD
ATOM     15  H   UNL     1      -1.846   6.020 -13.619  0.00  0.00    +0.000 HD
ATOM     16  H   UNL     1      -0.455   7.942 -14.300  0.00  0.00    +0.000 HD
ENDROOT
TORSDOF 0
ENDMDL
MODEL 8
REMARK VINA RESULT:    -4.573      9.918     11.315
REMARK INTER + INTRA:          -4.573
REMARK INTER:                  -4.573
REMARK INTRA:                   0.000
REMARK UNBOUND:                 0.000
REMARK  Name = 798
REMARK  0 active torsions:
REMARK  status: ('A' for Active; 'I' for Inactive)
REMARK                            x       y       z     vdW  Elec       q    Type
REMARK                         _______ _______ _______ _____ _____    ______ ____
ROOT
ATOM      1  N   UNL     1       2.002  -1.912 -12.817  0.00  0.00    +0.000 N 
ATOM      2  C   UNL     1       2.985  -1.346 -13.598  0.00  0.00    +0.000 A 
ATOM      3  C   UNL     1       2.530  -0.081 -13.978  0.00  0.00    +0.000 A 
ATOM      4  C   UNL     1       1.242   0.091 -13.398  0.00  0.00    +0.000 A 
ATOM      5  C   UNL     1       4.228  -1.851 -13.992  0.00  0.00    +0.000 A 
ATOM      6  C   UNL     1       3.355   0.720 -14.792  0.00  0.00    +0.000 A 
ATOM      7  C   UNL     1       0.945  -1.052 -12.691  0.00  0.00    +0.000 A 
ATOM      8  C   UNL     1       5.030  -1.039 -14.799  0.00  0.00    +0.000 A 
ATOM      9  C   UNL     1       4.602   0.228 -15.194  0.00  0.00    +0.000 A 
ATOM     10  H   UNL     1       2.055  -2.830 -12.398  0.00  0.00    +0.000 HD
ATOM     11  H   UNL     1       0.600   0.956 -13.488  0.00  0.00    +0.000 HD
ATOM     12  H   UNL     1       4.563  -2.836 -13.686  0.00  0.00    +0.000 HD
ATOM     13  H   UNL     1       3.034   1.708 -15.106  0.00  0.00    +0.000 HD
ATOM     14  H   UNL     1       0.077  -1.328 -12.110  0.00  0.00    +0.000 HD
ATOM     15  H   UNL     1       6.002  -1.401 -15.124  0.00  0.00    +0.000 HD
ATOM     16  H   UNL     1       5.243   0.841 -15.822  0.00  0.00    +0.000 HD
ENDROOT
TORSDOF 0
ENDMDL
MODEL 9
REMARK VINA RESULT:    -4.524      9.984     11.063
REMARK INTER + INTRA:          -4.524
REMARK INTER:                  -4.524
REMARK INTRA:                   0.000
REMARK UNBOUND:                 0.000
REMARK  Name = 798
REMARK  0 active torsions:
REMARK  status: ('A' for Active; 'I' for Inactive)
REMARK                            x       y       z     vdW  Elec       q    Type
REMARK                         _______ _______ _______ _____ _____    ______ ____
ROOT
ATOM      1  N   UNL     1       2.491  -2.628 -12.765  0.00  0.00    +0.000 N 
ATOM      2  C   UNL     1       2.272  -1.337 -13.188  0.00  0.00    +0.000 A 
ATOM      3  C   UNL     1       3.339  -0.989 -14.020  0.00  0.00    +0.000 A 
ATOM      4  C   UNL     1       4.204  -2.118 -14.081  0.00  0.00    +0.000 A 
ATOM      5  C   UNL     1       1.222  -0.458 -12.900  0.00  0.00    +0.000 A 
ATOM      6  C   UNL     1       3.360   0.296 -14.595  0.00  0.00    +0.000 A 
ATOM      7  C   UNL     1       3.656  -3.109 -13.299  0.00  0.00    +0.000 A 
ATOM      8  C   UNL     1       1.264   0.813 -13.481  0.00  0.00    +0.000 A 
ATOM      9  C   UNL     1       2.316   1.186 -14.316  0.00  0.00    +0.000 A 
ATOM     10  H   UNL     1       1.880  -3.146 -12.148  0.00  0.00    +0.000 HD
ATOM     11  H   UNL     1       5.128  -2.198 -14.636  0.00  0.00    +0.000 HD
ATOM     12  H   UNL     1       0.402  -0.746 -12.251  0.00  0.00    +0.000 HD
ATOM     13  H   UNL     1       4.174   0.600 -15.247  0.00  0.00    +0.000 HD
ATOM     14  H   UNL     1       3.992  -4.112 -13.076  0.00  0.00    +0.000 HD
ATOM     15  H   UNL     1       0.464   1.520 -13.279  0.00  0.00    +0.000 HD
ATOM     16  H   UNL     1       2.327   2.180 -14.756  0.00  0.00    +0.000 HD
ENDROOT
TORSDOF 0
ENDMDL
MODEL 10
REMARK VINA RESULT:    -4.434     25.800     26.723
REMARK INTER + INTRA:          -4.434
REMARK INTER:                  -4.434
REMARK INTRA:                   0.000
REMARK UNBOUND:                 0.000
REMARK  Name = 798
REMARK  0 active torsions:
REMARK  status: ('A' for Active; 'I' for Inactive)
REMARK                            x       y       z     vdW  Elec       q    Type
REMARK                         _______ _______ _______ _____ _____    ______ ____
ROOT
ATOM      1  N   UNL     1     -20.404  -3.566   6.263  0.00  0.00    +0.000 N 
ATOM      2  C   UNL     1     -20.035  -4.100   5.049  0.00  0.00    +0.000 A 
ATOM      3  C   UNL     1     -20.593  -3.289   4.057  0.00  0.00    +0.000 A 
ATOM      4  C   UNL     1     -21.307  -2.252   4.719  0.00  0.00    +0.000 A 
ATOM      5  C   UNL     1     -19.260  -5.227   4.754  0.00  0.00    +0.000 A 
ATOM      6  C   UNL     1     -20.366  -3.617   2.706  0.00  0.00    +0.000 A 
ATOM      7  C   UNL     1     -21.172  -2.450   6.075  0.00  0.00    +0.000 A 
ATOM      8  C   UNL     1     -19.048  -5.532   3.407  0.00  0.00    +0.000 A 
ATOM      9  C   UNL     1     -19.592  -4.741   2.396  0.00  0.00    +0.000 A 
ATOM     10  H   UNL     1     -20.143  -3.946   7.163  0.00  0.00    +0.000 HD
ATOM     11  H   UNL     1     -21.861  -1.447   4.257  0.00  0.00    +0.000 HD
ATOM     12  H   UNL     1     -18.836  -5.844   5.539  0.00  0.00    +0.000 HD
ATOM     13  H   UNL     1     -20.784  -3.009   1.909  0.00  0.00    +0.000 HD
ATOM     14  H   UNL     1     -21.554  -1.895   6.920  0.00  0.00    +0.000 HD
ATOM     15  H   UNL     1     -18.450  -6.401   3.144  0.00  0.00    +0.000 HD
ATOM     16  H   UNL     1     -19.413  -4.999   1.356  0.00  0.00    +0.000 HD
ENDROOT
TORSDOF 0
ENDMDL
