MODEL 1
REMARK VINA RESULT:    -4.163      0.000      0.000
REMARK INTER + INTRA:          -5.642
REMARK INTER:                  -5.311
REMARK INTRA:                  -0.331
REMARK UNBOUND:                -0.140
REMARK  Name = 31276
REMARK  7 active torsions:
REMARK  status: ('A' for Active; 'I' for Inactive)
REMARK    1  A    between atoms: O_1  and  C_5
REMARK    2  A    between atoms: O_1  and  C_8
REMARK    3  A    between atoms: C_3  and  C_4
REMARK    4  A    between atoms: C_3  and  C_6
REMARK    5  A    between atoms: C_3  and  C_7
REMARK    6  A    between atoms: C_4  and  C_5
REMARK    7  A    between atoms: C_8  and  C_9
REMARK                            x       y       z     vdW  Elec       q    Type
REMARK                         _______ _______ _______ _____ _____    ______ ____
ROOT
ATOM      1  C   UNL     1       6.051   8.981   0.263  0.00  0.00    +0.000 C 
ATOM      2  H   UNL     1       6.573   8.113   0.685  0.00  0.00    +0.000 HD
ATOM      3  H   UNL     1       5.769   8.681  -0.755  0.00  0.00    +0.000 HD
ENDROOT
BRANCH   1   4
ATOM      4  C   UNL     1       4.786   9.247   1.069  0.00  0.00    +0.000 C 
ATOM      5  H   UNL     1       4.491   8.357   1.633  0.00  0.00    +0.000 HD
ATOM      6  H   UNL     1       4.931  10.084   1.760  0.00  0.00    +0.000 HD
BRANCH   4   7
ATOM      7  O   UNL     1       3.737   9.587   0.171  0.00  0.00    +0.000 OA
BRANCH   7   9
ATOM      8  O   UNL     1       3.333  11.703   1.006  0.00  0.00    +0.000 OA
ATOM      9  C   UNL     1       3.446  10.919   0.073  0.00  0.00    +0.000 C 
BRANCH   9  10
ATOM     10  C   UNL     1       3.280  11.301  -1.367  0.00  0.00    +0.000 C 
ATOM     11  H   UNL     1       2.384  11.915  -1.486  0.00  0.00    +0.000 HD
ATOM     12  H   UNL     1       3.214  10.399  -1.983  0.00  0.00    +0.000 HD
ATOM     13  H   UNL     1       4.147  11.882  -1.691  0.00  0.00    +0.000 HD
ENDBRANCH   9  10
ENDBRANCH   7   9
ENDBRANCH   4   7
ENDBRANCH   1   4
BRANCH   1  14
ATOM     14  C   UNL     1       7.010  10.182   0.202  0.00  0.00    +0.000 C 
ATOM     15  H   UNL     1       6.675  10.917   0.944  0.00  0.00    +0.000 HD
BRANCH  14  16
ATOM     16  C   UNL     1       8.428   9.735   0.562  0.00  0.00    +0.000 C 
ATOM     17  H   UNL     1       9.112  10.590   0.523  0.00  0.00    +0.000 HD
ATOM     18  H   UNL     1       8.818   8.980  -0.128  0.00  0.00    +0.000 HD
ATOM     19  H   UNL     1       8.468   9.330   1.579  0.00  0.00    +0.000 HD
ENDBRANCH  14  16
BRANCH  14  20
ATOM     20  C   UNL     1       7.015  10.854  -1.172  0.00  0.00    +0.000 C 
ATOM     21  H   UNL     1       6.427  11.777  -1.185  0.00  0.00    +0.000 HD
ATOM     22  H   UNL     1       6.588  10.182  -1.925  0.00  0.00    +0.000 HD
ATOM     23  H   UNL     1       8.037  11.094  -1.484  0.00  0.00    +0.000 HD
ENDBRANCH  14  20
ENDBRANCH   1  14
TORSDOF 7
ENDMDL
MODEL 2
REMARK VINA RESULT:    -4.119     12.539     13.590
REMARK INTER + INTRA:          -5.583
REMARK INTER:                  -5.262
REMARK INTRA:                  -0.321
REMARK UNBOUND:                -0.140
REMARK  Name = 31276
REMARK  7 active torsions:
REMARK  status: ('A' for Active; 'I' for Inactive)
REMARK    1  A    between atoms: O_1  and  C_5
REMARK    2  A    between atoms: O_1  and  C_8
REMARK    3  A    between atoms: C_3  and  C_4
REMARK    4  A    between atoms: C_3  and  C_6
REMARK    5  A    between atoms: C_3  and  C_7
REMARK    6  A    between atoms: C_4  and  C_5
REMARK    7  A    between atoms: C_8  and  C_9
REMARK                            x       y       z     vdW  Elec       q    Type
REMARK                         _______ _______ _______ _____ _____    ______ ____
ROOT
ATOM      1  C   UNL     1      -2.770   8.560  -9.100  0.00  0.00    +0.000 C 
ATOM      2  H   UNL     1      -1.861   8.458  -8.494  0.00  0.00    +0.000 HD
ATOM      3  H   UNL     1      -3.550   8.882  -8.398  0.00  0.00    +0.000 HD
ENDROOT
BRANCH   1   4
ATOM      4  C   UNL     1      -2.559   9.654 -10.140  0.00  0.00    +0.000 C 
ATOM      5  H   UNL     1      -3.028   9.381 -11.091  0.00  0.00    +0.000 HD
ATOM      6  H   UNL     1      -2.971  10.608  -9.794  0.00  0.00    +0.000 HD
BRANCH   4   7
ATOM      7  O   UNL     1      -1.163   9.820 -10.350  0.00  0.00    +0.000 OA
BRANCH   7   9
ATOM      8  O   UNL     1      -0.710  10.796 -12.394  0.00  0.00    +0.000 OA
ATOM      9  C   UNL     1      -0.753   9.823 -11.654  0.00  0.00    +0.000 C 
BRANCH   9  10
ATOM     10  C   UNL     1      -0.353   8.438 -12.067  0.00  0.00    +0.000 C 
ATOM     11  H   UNL     1      -1.203   7.928 -12.525  0.00  0.00    +0.000 HD
ATOM     12  H   UNL     1       0.006   7.882 -11.195  0.00  0.00    +0.000 HD
ATOM     13  H   UNL     1       0.456   8.496 -12.800  0.00  0.00    +0.000 HD
ENDBRANCH   9  10
ENDBRANCH   7   9
ENDBRANCH   4   7
ENDBRANCH   1   4
BRANCH   1  14
ATOM     14  C   UNL     1      -3.146   7.196  -9.703  0.00  0.00    +0.000 C 
ATOM     15  H   UNL     1      -2.232   6.594  -9.768  0.00  0.00    +0.000 HD
BRANCH  14  16
ATOM     16  C   UNL     1      -4.141   6.479  -8.789  0.00  0.00    +0.000 C 
ATOM     17  H   UNL     1      -3.709   6.356  -7.789  0.00  0.00    +0.000 HD
ATOM     18  H   UNL     1      -4.399   5.480  -9.152  0.00  0.00    +0.000 HD
ATOM     19  H   UNL     1      -5.064   7.059  -8.678  0.00  0.00    +0.000 HD
ENDBRANCH  14  16
BRANCH  14  20
ATOM     20  C   UNL     1      -3.737   7.325 -11.108  0.00  0.00    +0.000 C 
ATOM     21  H   UNL     1      -4.742   7.757 -11.098  0.00  0.00    +0.000 HD
ATOM     22  H   UNL     1      -3.808   6.340 -11.582  0.00  0.00    +0.000 HD
ATOM     23  H   UNL     1      -3.101   7.952 -11.741  0.00  0.00    +0.000 HD
ENDBRANCH  14  20
ENDBRANCH   1  14
TORSDOF 7
ENDMDL
MODEL 3
REMARK VINA RESULT:    -3.915     28.375     29.248
REMARK INTER + INTRA:          -5.314
REMARK INTER:                  -5.196
REMARK INTRA:                  -0.117
REMARK UNBOUND:                -0.140
REMARK  Name = 31276
REMARK  7 active torsions:
REMARK  status: ('A' for Active; 'I' for Inactive)
REMARK    1  A    between atoms: O_1  and  C_5
REMARK    2  A    between atoms: O_1  and  C_8
REMARK    3  A    between atoms: C_3  and  C_4
REMARK    4  A    between atoms: C_3  and  C_6
REMARK    5  A    between atoms: C_3  and  C_7
REMARK    6  A    between atoms: C_4  and  C_5
REMARK    7  A    between atoms: C_8  and  C_9
REMARK                            x       y       z     vdW  Elec       q    Type
REMARK                         _______ _______ _______ _____ _____    ______ ____
ROOT
ATOM      1  C   UNL     1     -20.975  -2.239   4.518  0.00  0.00    +0.000 C 
ATOM      2  H   UNL     1     -20.163  -1.928   3.850  0.00  0.00    +0.000 HD
ATOM      3  H   UNL     1     -21.874  -2.261   3.890  0.00  0.00    +0.000 HD
ENDROOT
BRANCH   1   4
ATOM      4  C   UNL     1     -20.693  -3.648   5.028  0.00  0.00    +0.000 C 
ATOM      5  H   UNL     1     -19.904  -3.636   5.786  0.00  0.00    +0.000 HD
ATOM      6  H   UNL     1     -21.597  -4.098   5.453  0.00  0.00    +0.000 HD
BRANCH   4   7
ATOM      7  O   UNL     1     -20.266  -4.451   3.935  0.00  0.00    +0.000 OA
BRANCH   7   9
ATOM      8  O   UNL     1     -18.611  -5.558   5.106  0.00  0.00    +0.000 OA
ATOM      9  C   UNL     1     -19.048  -5.053   4.081  0.00  0.00    +0.000 C 
BRANCH   9  10
ATOM     10  C   UNL     1     -18.301  -5.014   2.782  0.00  0.00    +0.000 C 
ATOM     11  H   UNL     1     -18.975  -4.714   1.976  0.00  0.00    +0.000 HD
ATOM     12  H   UNL     1     -17.866  -5.996   2.575  0.00  0.00    +0.000 HD
ATOM     13  H   UNL     1     -17.491  -4.282   2.850  0.00  0.00    +0.000 HD
ENDBRANCH   9  10
ENDBRANCH   7   9
ENDBRANCH   4   7
ENDBRANCH   1   4
BRANCH   1  14
ATOM     14  C   UNL     1     -21.151  -1.200   5.638  0.00  0.00    +0.000 C 
ATOM     15  H   UNL     1     -22.217  -0.953   5.702  0.00  0.00    +0.000 HD
BRANCH  14  16
ATOM     16  C   UNL     1     -20.705  -1.795   6.975  0.00  0.00    +0.000 C 
ATOM     17  H   UNL     1     -19.862  -1.222   7.378  0.00  0.00    +0.000 HD
ATOM     18  H   UNL     1     -20.372  -2.833   6.882  0.00  0.00    +0.000 HD
ATOM     19  H   UNL     1     -21.512  -1.753   7.714  0.00  0.00    +0.000 HD
ENDBRANCH  14  16
BRANCH  14  20
ATOM     20  C   UNL     1     -20.375   0.089   5.363  0.00  0.00    +0.000 C 
ATOM     21  H   UNL     1     -19.351  -0.106   5.027  0.00  0.00    +0.000 HD
ATOM     22  H   UNL     1     -20.312   0.696   6.272  0.00  0.00    +0.000 HD
ATOM     23  H   UNL     1     -20.878   0.689   4.597  0.00  0.00    +0.000 HD
ENDBRANCH  14  20
ENDBRANCH   1  14
TORSDOF 7
ENDMDL
MODEL 4
REMARK VINA RESULT:    -3.812     13.030     14.422
REMARK INTER + INTRA:          -5.177
REMARK INTER:                  -5.042
REMARK INTRA:                  -0.135
REMARK UNBOUND:                -0.140
REMARK  Name = 31276
REMARK  7 active torsions:
REMARK  status: ('A' for Active; 'I' for Inactive)
REMARK    1  A    between atoms: O_1  and  C_5
REMARK    2  A    between atoms: O_1  and  C_8
REMARK    3  A    between atoms: C_3  and  C_4
REMARK    4  A    between atoms: C_3  and  C_6
REMARK    5  A    between atoms: C_3  and  C_7
REMARK    6  A    between atoms: C_4  and  C_5
REMARK    7  A    between atoms: C_8  and  C_9
REMARK                            x       y       z     vdW  Elec       q    Type
REMARK                         _______ _______ _______ _____ _____    ______ ____
ROOT
ATOM      1  C   UNL     1      -3.078   6.797 -10.836  0.00  0.00    +0.000 C 
ATOM      2  H   UNL     1      -3.820   7.455 -11.306  0.00  0.00    +0.000 HD
ATOM      3  H   UNL     1      -3.364   5.780 -11.132  0.00  0.00    +0.000 HD
ENDROOT
BRANCH   1   4
ATOM      4  C   UNL     1      -1.699   7.109 -11.406  0.00  0.00    +0.000 C 
ATOM      5  H   UNL     1      -0.981   7.298 -10.602  0.00  0.00    +0.000 HD
ATOM      6  H   UNL     1      -1.337   6.283 -12.028  0.00  0.00    +0.000 HD
BRANCH   4   7
ATOM      7  O   UNL     1      -1.793   8.272 -12.218  0.00  0.00    +0.000 OA
BRANCH   7   9
ATOM      8  O   UNL     1       0.133   8.860 -13.347  0.00  0.00    +0.000 OA
ATOM      9  C   UNL     1      -0.959   8.311 -13.300  0.00  0.00    +0.000 C 
BRANCH   9  10
ATOM     10  C   UNL     1      -1.575   7.571 -14.448  0.00  0.00    +0.000 C 
ATOM     11  H   UNL     1      -2.334   6.877 -14.077  0.00  0.00    +0.000 HD
ATOM     12  H   UNL     1      -0.799   7.034 -15.001  0.00  0.00    +0.000 HD
ATOM     13  H   UNL     1      -2.055   8.283 -15.124  0.00  0.00    +0.000 HD
ENDBRANCH   9  10
ENDBRANCH   7   9
ENDBRANCH   4   7
ENDBRANCH   1   4
BRANCH   1  14
ATOM     14  C   UNL     1      -3.161   6.935  -9.306  0.00  0.00    +0.000 C 
ATOM     15  H   UNL     1      -2.352   6.335  -8.872  0.00  0.00    +0.000 HD
BRANCH  14  16
ATOM     16  C   UNL     1      -2.957   8.396  -8.903  0.00  0.00    +0.000 C 
ATOM     17  H   UNL     1      -2.952   8.486  -7.811  0.00  0.00    +0.000 HD
ATOM     18  H   UNL     1      -3.752   9.049  -9.275  0.00  0.00    +0.000 HD
ATOM     19  H   UNL     1      -1.996   8.775  -9.267  0.00  0.00    +0.000 HD
ENDBRANCH  14  16
BRANCH  14  20
ATOM     20  C   UNL     1      -4.491   6.426  -8.748  0.00  0.00    +0.000 C 
ATOM     21  H   UNL     1      -5.265   6.358  -9.518  0.00  0.00    +0.000 HD
ATOM     22  H   UNL     1      -4.859   7.103  -7.970  0.00  0.00    +0.000 HD
ATOM     23  H   UNL     1      -4.369   5.436  -8.295  0.00  0.00    +0.000 HD
ENDBRANCH  14  20
ENDBRANCH   1  14
TORSDOF 7
ENDMDL
MODEL 5
REMARK VINA RESULT:    -3.725     12.749     14.221
REMARK INTER + INTRA:          -5.063
REMARK INTER:                  -4.860
REMARK INTRA:                  -0.202
REMARK UNBOUND:                -0.140
REMARK  Name = 31276
REMARK  7 active torsions:
REMARK  status: ('A' for Active; 'I' for Inactive)
REMARK    1  A    between atoms: O_1  and  C_5
REMARK    2  A    between atoms: O_1  and  C_8
REMARK    3  A    between atoms: C_3  and  C_4
REMARK    4  A    between atoms: C_3  and  C_6
REMARK    5  A    between atoms: C_3  and  C_7
REMARK    6  A    between atoms: C_4  and  C_5
REMARK    7  A    between atoms: C_8  and  C_9
REMARK                            x       y       z     vdW  Elec       q    Type
REMARK                         _______ _______ _______ _____ _____    ______ ____
ROOT
ATOM      1  C   UNL     1      -1.150   9.875 -10.581  0.00  0.00    +0.000 C 
ATOM      2  H   UNL     1      -0.323   9.267 -10.193  0.00  0.00    +0.000 HD
ATOM      3  H   UNL     1      -1.066  10.840 -10.063  0.00  0.00    +0.000 HD
ENDROOT
BRANCH   1   4
ATOM      4  C   UNL     1      -0.951  10.097 -12.075  0.00  0.00    +0.000 C 
ATOM      5  H   UNL     1      -1.895   9.973 -12.615  0.00  0.00    +0.000 HD
ATOM      6  H   UNL     1      -0.550  11.097 -12.273  0.00  0.00    +0.000 HD
BRANCH   4   7
ATOM      7  O   UNL     1      -0.019   9.138 -12.559  0.00  0.00    +0.000 OA
BRANCH   7   9
ATOM      8  O   UNL     1       0.924   9.524 -14.632  0.00  0.00    +0.000 OA
ATOM      9  C   UNL     1       0.065   9.024 -13.918  0.00  0.00    +0.000 C 
BRANCH   9  10
ATOM     10  C   UNL     1      -1.064   8.181 -14.431  0.00  0.00    +0.000 C 
ATOM     11  H   UNL     1      -0.834   7.828 -15.438  0.00  0.00    +0.000 HD
ATOM     12  H   UNL     1      -1.990   8.763 -14.429  0.00  0.00    +0.000 HD
ATOM     13  H   UNL     1      -1.196   7.314 -13.778  0.00  0.00    +0.000 HD
ENDBRANCH   9  10
ENDBRANCH   7   9
ENDBRANCH   4   7
ENDBRANCH   1   4
BRANCH   1  14
ATOM     14  C   UNL     1      -2.492   9.212 -10.226  0.00  0.00    +0.000 C 
ATOM     15  H   UNL     1      -3.263   9.652 -10.870  0.00  0.00    +0.000 HD
BRANCH  14  16
ATOM     16  C   UNL     1      -2.419   7.710 -10.504  0.00  0.00    +0.000 C 
ATOM     17  H   UNL     1      -2.473   7.152  -9.563  0.00  0.00    +0.000 HD
ATOM     18  H   UNL     1      -1.486   7.419 -10.997  0.00  0.00    +0.000 HD
ATOM     19  H   UNL     1      -3.259   7.383 -11.128  0.00  0.00    +0.000 HD
ENDBRANCH  14  16
BRANCH  14  20
ATOM     20  C   UNL     1      -2.890   9.449  -8.769  0.00  0.00    +0.000 C 
ATOM     21  H   UNL     1      -3.122  10.499  -8.567  0.00  0.00    +0.000 HD
ATOM     22  H   UNL     1      -2.073   9.159  -8.100  0.00  0.00    +0.000 HD
ATOM     23  H   UNL     1      -3.766   8.847  -8.503  0.00  0.00    +0.000 HD
ENDBRANCH  14  20
ENDBRANCH   1  14
TORSDOF 7
ENDMDL
MODEL 6
REMARK VINA RESULT:    -3.648     14.101     15.811
REMARK INTER + INTRA:          -4.961
REMARK INTER:                  -4.807
REMARK INTRA:                  -0.153
REMARK UNBOUND:                -0.140
REMARK  Name = 31276
REMARK  7 active torsions:
REMARK  status: ('A' for Active; 'I' for Inactive)
REMARK    1  A    between atoms: O_1  and  C_5
REMARK    2  A    between atoms: O_1  and  C_8
REMARK    3  A    between atoms: C_3  and  C_4
REMARK    4  A    between atoms: C_3  and  C_6
REMARK    5  A    between atoms: C_3  and  C_7
REMARK    6  A    between atoms: C_4  and  C_5
REMARK    7  A    between atoms: C_8  and  C_9
REMARK                            x       y       z     vdW  Elec       q    Type
REMARK                         _______ _______ _______ _____ _____    ______ ____
ROOT
ATOM      1  C   UNL     1      -7.957  12.046   6.674  0.00  0.00    +0.000 C 
ATOM      2  H   UNL     1      -8.508  12.858   7.164  0.00  0.00    +0.000 HD
ATOM      3  H   UNL     1      -7.050  11.907   7.277  0.00  0.00    +0.000 HD
ENDROOT
BRANCH   1   4
ATOM      4  C   UNL     1      -8.789  10.770   6.732  0.00  0.00    +0.000 C 
ATOM      5  H   UNL     1      -8.423  10.035   6.008  0.00  0.00    +0.000 HD
ATOM      6  H   UNL     1      -8.765  10.333   7.736  0.00  0.00    +0.000 HD
BRANCH   4   7
ATOM      7  O   UNL     1     -10.137  11.090   6.416  0.00  0.00    +0.000 OA
BRANCH   7   9
ATOM      8  O   UNL     1     -12.230  10.122   6.545  0.00  0.00    +0.000 OA
ATOM      9  C   UNL     1     -11.086  10.266   6.953  0.00  0.00    +0.000 C 
BRANCH   9  10
ATOM     10  C   UNL     1     -10.522   9.544   8.139  0.00  0.00    +0.000 C 
ATOM     11  H   UNL     1      -9.671   8.933   7.831  0.00  0.00    +0.000 HD
ATOM     12  H   UNL     1     -11.297   8.921   8.595  0.00  0.00    +0.000 HD
ATOM     13  H   UNL     1     -10.180  10.271   8.880  0.00  0.00    +0.000 HD
ENDBRANCH   9  10
ENDBRANCH   7   9
ENDBRANCH   4   7
ENDBRANCH   1   4
BRANCH   1  14
ATOM     14  C   UNL     1      -7.571  12.469   5.247  0.00  0.00    +0.000 C 
ATOM     15  H   UNL     1      -8.417  13.021   4.821  0.00  0.00    +0.000 HD
BRANCH  14  16
ATOM     16  C   UNL     1      -6.354  13.396   5.290  0.00  0.00    +0.000 C 
ATOM     17  H   UNL     1      -6.055  13.669   4.272  0.00  0.00    +0.000 HD
ATOM     18  H   UNL     1      -5.486  12.927   5.765  0.00  0.00    +0.000 HD
ATOM     19  H   UNL     1      -6.584  14.324   5.825  0.00  0.00    +0.000 HD
ENDBRANCH  14  16
BRANCH  14  20
ATOM     20  C   UNL     1      -7.274  11.270   4.345  0.00  0.00    +0.000 C 
ATOM     21  H   UNL     1      -8.125  11.010   3.707  0.00  0.00    +0.000 HD
ATOM     22  H   UNL     1      -7.035  10.389   4.950  0.00  0.00    +0.000 HD
ATOM     23  H   UNL     1      -6.412  11.473   3.700  0.00  0.00    +0.000 HD
ENDBRANCH  14  20
ENDBRANCH   1  14
TORSDOF 7
ENDMDL
MODEL 7
REMARK VINA RESULT:    -3.583     29.104     29.810
REMARK INTER + INTRA:          -4.874
REMARK INTER:                  -4.547
REMARK INTRA:                  -0.327
REMARK UNBOUND:                -0.140
REMARK  Name = 31276
REMARK  7 active torsions:
REMARK  status: ('A' for Active; 'I' for Inactive)
REMARK    1  A    between atoms: O_1  and  C_5
REMARK    2  A    between atoms: O_1  and  C_8
REMARK    3  A    between atoms: C_3  and  C_4
REMARK    4  A    between atoms: C_3  and  C_6
REMARK    5  A    between atoms: C_3  and  C_7
REMARK    6  A    between atoms: C_4  and  C_5
REMARK    7  A    between atoms: C_8  and  C_9
REMARK                            x       y       z     vdW  Elec       q    Type
REMARK                         _______ _______ _______ _____ _____    ______ ____
ROOT
ATOM      1  C   UNL     1     -20.847  -1.380   4.958  0.00  0.00    +0.000 C 
ATOM      2  H   UNL     1     -19.937  -1.005   4.473  0.00  0.00    +0.000 HD
ATOM      3  H   UNL     1     -21.530  -0.521   4.994  0.00  0.00    +0.000 HD
ENDROOT
BRANCH   1   4
ATOM      4  C   UNL     1     -21.466  -2.468   4.090  0.00  0.00    +0.000 C 
ATOM      5  H   UNL     1     -22.100  -3.129   4.689  0.00  0.00    +0.000 HD
ATOM      6  H   UNL     1     -22.062  -2.031   3.280  0.00  0.00    +0.000 HD
BRANCH   4   7
ATOM      7  O   UNL     1     -20.422  -3.239   3.509  0.00  0.00    +0.000 OA
BRANCH   7   9
ATOM      8  O   UNL     1     -21.397  -5.319   3.272  0.00  0.00    +0.000 OA
ATOM      9  C   UNL     1     -20.508  -4.590   3.691  0.00  0.00    +0.000 C 
BRANCH   9  10
ATOM     10  C   UNL     1     -19.337  -5.074   4.492  0.00  0.00    +0.000 C 
ATOM     11  H   UNL     1     -18.510  -4.365   4.403  0.00  0.00    +0.000 HD
ATOM     12  H   UNL     1     -19.034  -6.065   4.143  0.00  0.00    +0.000 HD
ATOM     13  H   UNL     1     -19.622  -5.147   5.545  0.00  0.00    +0.000 HD
ENDBRANCH   9  10
ENDBRANCH   7   9
ENDBRANCH   4   7
ENDBRANCH   1   4
BRANCH   1  14
ATOM     14  C   UNL     1     -20.518  -1.841   6.388  0.00  0.00    +0.000 C 
ATOM     15  H   UNL     1     -19.494  -2.232   6.387  0.00  0.00    +0.000 HD
BRANCH  14  16
ATOM     16  C   UNL     1     -20.587  -0.651   7.347  0.00  0.00    +0.000 C 
ATOM     17  H   UNL     1     -21.474  -0.736   7.985  0.00  0.00    +0.000 HD
ATOM     18  H   UNL     1     -20.660   0.306   6.823  0.00  0.00    +0.000 HD
ATOM     19  H   UNL     1     -19.712  -0.623   8.005  0.00  0.00    +0.000 HD
ENDBRANCH  14  16
BRANCH  14  20
ATOM     20  C   UNL     1     -21.455  -2.949   6.871  0.00  0.00    +0.000 C 
ATOM     21  H   UNL     1     -21.511  -3.783   6.165  0.00  0.00    +0.000 HD
ATOM     22  H   UNL     1     -22.470  -2.559   7.000  0.00  0.00    +0.000 HD
ATOM     23  H   UNL     1     -21.126  -3.341   7.839  0.00  0.00    +0.000 HD
ENDBRANCH  14  20
ENDBRANCH   1  14
TORSDOF 7
ENDMDL
MODEL 8
REMARK VINA RESULT:    -3.559     33.154     34.493
REMARK INTER + INTRA:          -4.843
REMARK INTER:                  -4.704
REMARK INTRA:                  -0.140
REMARK UNBOUND:                -0.140
REMARK  Name = 31276
REMARK  7 active torsions:
REMARK  status: ('A' for Active; 'I' for Inactive)
REMARK    1  A    between atoms: O_1  and  C_5
REMARK    2  A    between atoms: O_1  and  C_8
REMARK    3  A    between atoms: C_3  and  C_4
REMARK    4  A    between atoms: C_3  and  C_6
REMARK    5  A    between atoms: C_3  and  C_7
REMARK    6  A    between atoms: C_4  and  C_5
REMARK    7  A    between atoms: C_8  and  C_9
REMARK                            x       y       z     vdW  Elec       q    Type
REMARK                         _______ _______ _______ _____ _____    ______ ____
ROOT
ATOM      1  C   UNL     1      -4.488  -5.195  29.171  0.00  0.00    +0.000 C 
ATOM      2  H   UNL     1      -5.446  -5.199  29.705  0.00  0.00    +0.000 HD
ATOM      3  H   UNL     1      -3.731  -5.419  29.933  0.00  0.00    +0.000 HD
ENDROOT
BRANCH   1   4
ATOM      4  C   UNL     1      -4.488  -6.309  28.132  0.00  0.00    +0.000 C 
ATOM      5  H   UNL     1      -4.725  -5.914  27.139  0.00  0.00    +0.000 HD
ATOM      6  H   UNL     1      -3.516  -6.814  28.098  0.00  0.00    +0.000 HD
BRANCH   4   7
ATOM      7  O   UNL     1      -5.476  -7.268  28.490  0.00  0.00    +0.000 OA
BRANCH   7   9
ATOM      8  O   UNL     1      -4.930  -8.751  30.174  0.00  0.00    +0.000 OA
ATOM      9  C   UNL     1      -5.005  -8.449  28.991  0.00  0.00    +0.000 C 
BRANCH   9  10
ATOM     10  C   UNL     1      -4.582  -9.347  27.868  0.00  0.00    +0.000 C 
ATOM     11  H   UNL     1      -5.454  -9.641  27.281  0.00  0.00    +0.000 HD
ATOM     12  H   UNL     1      -4.074 -10.228  28.271  0.00  0.00    +0.000 HD
ATOM     13  H   UNL     1      -3.886  -8.812  27.216  0.00  0.00    +0.000 HD
ENDBRANCH   9  10
ENDBRANCH   7   9
ENDBRANCH   4   7
ENDBRANCH   1   4
BRANCH   1  14
ATOM     14  C   UNL     1      -4.231  -3.798  28.581  0.00  0.00    +0.000 C 
ATOM     15  H   UNL     1      -4.806  -3.074  29.170  0.00  0.00    +0.000 HD
BRANCH  14  16
ATOM     16  C   UNL     1      -2.745  -3.451  28.693  0.00  0.00    +0.000 C 
ATOM     17  H   UNL     1      -2.400  -2.976  27.768  0.00  0.00    +0.000 HD
ATOM     18  H   UNL     1      -2.119  -4.334  28.853  0.00  0.00    +0.000 HD
ATOM     19  H   UNL     1      -2.566  -2.745  29.511  0.00  0.00    +0.000 HD
ENDBRANCH  14  16
BRANCH  14  20
ATOM     20  C   UNL     1      -4.676  -3.692  27.122  0.00  0.00    +0.000 C 
ATOM     21  H   UNL     1      -4.487  -4.613  26.561  0.00  0.00    +0.000 HD
ATOM     22  H   UNL     1      -4.136  -2.884  26.617  0.00  0.00    +0.000 HD
ATOM     23  H   UNL     1      -5.746  -3.467  27.058  0.00  0.00    +0.000 HD
ENDBRANCH  14  20
ENDBRANCH   1  14
TORSDOF 7
ENDMDL
MODEL 9
REMARK VINA RESULT:    -3.512     15.805     16.835
REMARK INTER + INTRA:          -4.781
REMARK INTER:                  -4.490
REMARK INTRA:                  -0.291
REMARK UNBOUND:                -0.140
REMARK  Name = 31276
REMARK  7 active torsions:
REMARK  status: ('A' for Active; 'I' for Inactive)
REMARK    1  A    between atoms: O_1  and  C_5
REMARK    2  A    between atoms: O_1  and  C_8
REMARK    3  A    between atoms: C_3  and  C_4
REMARK    4  A    between atoms: C_3  and  C_6
REMARK    5  A    between atoms: C_3  and  C_7
REMARK    6  A    between atoms: C_4  and  C_5
REMARK    7  A    between atoms: C_8  and  C_9
REMARK                            x       y       z     vdW  Elec       q    Type
REMARK                         _______ _______ _______ _____ _____    ______ ____
ROOT
ATOM      1  C   UNL     1      -9.495   5.324  -6.545  0.00  0.00    +0.000 C 
ATOM      2  H   UNL     1     -10.477   5.441  -7.021  0.00  0.00    +0.000 HD
ATOM      3  H   UNL     1      -8.914   4.697  -7.233  0.00  0.00    +0.000 HD
ENDROOT
BRANCH   1   4
ATOM      4  C   UNL     1      -8.826   6.689  -6.435  0.00  0.00    +0.000 C 
ATOM      5  H   UNL     1      -7.752   6.581  -6.254  0.00  0.00    +0.000 HD
ATOM      6  H   UNL     1      -8.982   7.276  -7.346  0.00  0.00    +0.000 HD
BRANCH   4   7
ATOM      7  O   UNL     1      -9.404   7.394  -5.344  0.00  0.00    +0.000 OA
BRANCH   7   9
ATOM      8  O   UNL     1     -10.222   9.285  -6.388  0.00  0.00    +0.000 OA
ATOM      9  C   UNL     1     -10.369   8.305  -5.670  0.00  0.00    +0.000 C 
BRANCH   9  10
ATOM     10  C   UNL     1     -11.665   7.934  -5.013  0.00  0.00    +0.000 C 
ATOM     11  H   UNL     1     -11.644   6.882  -4.721  0.00  0.00    +0.000 HD
ATOM     12  H   UNL     1     -12.495   8.127  -5.698  0.00  0.00    +0.000 HD
ATOM     13  H   UNL     1     -11.805   8.542  -4.115  0.00  0.00    +0.000 HD
ENDBRANCH   9  10
ENDBRANCH   7   9
ENDBRANCH   4   7
ENDBRANCH   1   4
BRANCH   1  14
ATOM     14  C   UNL     1      -9.655   4.602  -5.196  0.00  0.00    +0.000 C 
ATOM     15  H   UNL     1     -10.046   5.328  -4.473  0.00  0.00    +0.000 HD
BRANCH  14  16
ATOM     16  C   UNL     1     -10.662   3.458  -5.335  0.00  0.00    +0.000 C 
ATOM     17  H   UNL     1     -10.595   2.794  -4.466  0.00  0.00    +0.000 HD
ATOM     18  H   UNL     1     -10.480   2.844  -6.222  0.00  0.00    +0.000 HD
ATOM     19  H   UNL     1     -11.688   3.839  -5.379  0.00  0.00    +0.000 HD
ENDBRANCH  14  16
BRANCH  14  20
ATOM     20  C   UNL     1      -8.328   4.060  -4.665  0.00  0.00    +0.000 C 
ATOM     21  H   UNL     1      -7.885   4.715  -3.908  0.00  0.00    +0.000 HD
ATOM     22  H   UNL     1      -7.603   3.964  -5.481  0.00  0.00    +0.000 HD
ATOM     23  H   UNL     1      -8.463   3.067  -4.223  0.00  0.00    +0.000 HD
ENDBRANCH  14  20
ENDBRANCH   1  14
TORSDOF 7
ENDMDL
MODEL 10
REMARK VINA RESULT:    -3.485     13.932     15.453
REMARK INTER + INTRA:          -4.745
REMARK INTER:                  -4.627
REMARK INTRA:                  -0.118
REMARK UNBOUND:                -0.140
REMARK  Name = 31276
REMARK  7 active torsions:
REMARK  status: ('A' for Active; 'I' for Inactive)
REMARK    1  A    between atoms: O_1  and  C_5
REMARK    2  A    between atoms: O_1  and  C_8
REMARK    3  A    between atoms: C_3  and  C_4
REMARK    4  A    between atoms: C_3  and  C_6
REMARK    5  A    between atoms: C_3  and  C_7
REMARK    6  A    between atoms: C_4  and  C_5
REMARK    7  A    between atoms: C_8  and  C_9
REMARK                            x       y       z     vdW  Elec       q    Type
REMARK                         _______ _______ _______ _____ _____    ______ ____
ROOT
ATOM      1  C   UNL     1      -8.435  12.376   6.471  0.00  0.00    +0.000 C 
ATOM      2  H   UNL     1      -9.303  12.010   5.909  0.00  0.00    +0.000 HD
ATOM      3  H   UNL     1      -8.625  13.445   6.632  0.00  0.00    +0.000 HD
ENDROOT
BRANCH   1   4
ATOM      4  C   UNL     1      -8.381  11.674   7.823  0.00  0.00    +0.000 C 
ATOM      5  H   UNL     1      -7.450  11.912   8.347  0.00  0.00    +0.000 HD
ATOM      6  H   UNL     1      -9.233  11.963   8.448  0.00  0.00    +0.000 HD
BRANCH   4   7
ATOM      7  O   UNL     1      -8.440  10.270   7.611  0.00  0.00    +0.000 OA
BRANCH   7   9
ATOM      8  O   UNL     1     -10.128   9.568   9.021  0.00  0.00    +0.000 OA
ATOM      9  C   UNL     1      -8.968   9.535   8.635  0.00  0.00    +0.000 C 
BRANCH   9  10
ATOM     10  C   UNL     1      -7.910   8.659   9.235  0.00  0.00    +0.000 C 
ATOM     11  H   UNL     1      -8.334   8.073  10.053  0.00  0.00    +0.000 HD
ATOM     12  H   UNL     1      -7.079   9.275   9.592  0.00  0.00    +0.000 HD
ATOM     13  H   UNL     1      -7.532   7.971   8.473  0.00  0.00    +0.000 HD
ENDBRANCH   9  10
ENDBRANCH   7   9
ENDBRANCH   4   7
ENDBRANCH   1   4
BRANCH   1  14
ATOM     14  C   UNL     1      -7.160  12.197   5.630  0.00  0.00    +0.000 C 
ATOM     15  H   UNL     1      -6.425  11.665   6.245  0.00  0.00    +0.000 HD
BRANCH  14  16
ATOM     16  C   UNL     1      -7.467  11.350   4.393  0.00  0.00    +0.000 C 
ATOM     17  H   UNL     1      -8.518  11.041   4.403  0.00  0.00    +0.000 HD
ATOM     18  H   UNL     1      -6.865  10.438   4.349  0.00  0.00    +0.000 HD
ATOM     19  H   UNL     1      -7.303  11.922   3.473  0.00  0.00    +0.000 HD
ENDBRANCH  14  16
BRANCH  14  20
ATOM     20  C   UNL     1      -6.553  13.534   5.202  0.00  0.00    +0.000 C 
ATOM     21  H   UNL     1      -7.225  14.107   4.556  0.00  0.00    +0.000 HD
ATOM     22  H   UNL     1      -5.624  13.369   4.647  0.00  0.00    +0.000 HD
ATOM     23  H   UNL     1      -6.312  14.148   6.077  0.00  0.00    +0.000 HD
ENDBRANCH  14  20
ENDBRANCH   1  14
TORSDOF 7
ENDMDL
