MODEL 1
REMARK VINA RESULT:    -3.720      0.000      0.000
REMARK INTER + INTRA:          -4.264
REMARK INTER:                  -4.264
REMARK INTRA:                   0.000
REMARK UNBOUND:                 0.000
REMARK  Name = 6590
REMARK  4 active torsions:
REMARK  status: ('A' for Active; 'I' for Inactive)
REMARK    1  A    between atoms: O_1  and  C_6
REMARK    2  A    between atoms: C_3  and  C_4
REMARK    3  A    between atoms: C_3  and  C_5
REMARK    4  A    between atoms: C_3  and  C_6
REMARK                            x       y       z     vdW  Elec       q    Type
REMARK                         _______ _______ _______ _____ _____    ______ ____
ROOT
ATOM      1  C   UNL     1       4.176  10.803  -0.741  0.00  0.00    +0.000 C 
ATOM      2  H   UNL     1       5.149  10.814  -1.250  0.00  0.00    +0.000 HD
ENDROOT
BRANCH   1   3
ATOM      3  C   UNL     1       3.936   9.427  -0.132  0.00  0.00    +0.000 C 
ATOM      4  H   UNL     1       2.871   9.268   0.069  0.00  0.00    +0.000 HD
ATOM      5  H   UNL     1       4.484   9.308   0.809  0.00  0.00    +0.000 HD
ATOM      6  H   UNL     1       4.274   8.636  -0.810  0.00  0.00    +0.000 HD
ENDBRANCH   1   3
BRANCH   1   7
ATOM      7  C   UNL     1       3.110  11.133  -1.782  0.00  0.00    +0.000 C 
ATOM      8  H   UNL     1       2.988  12.215  -1.903  0.00  0.00    +0.000 HD
ATOM      9  H   UNL     1       2.140  10.712  -1.495  0.00  0.00    +0.000 HD
ATOM     10  H   UNL     1       3.382  10.722  -2.761  0.00  0.00    +0.000 HD
ENDBRANCH   1   7
BRANCH   1  12
ATOM     11  O   UNL     1       5.066  12.700   0.511  0.00  0.00    +0.000 OA
ATOM     12  C   UNL     1       4.200  11.852   0.351  0.00  0.00    +0.000 C 
BRANCH  12  13
ATOM     13  O   UNL     1       3.106  11.737   1.148  0.00  0.00    +0.000 OA
ATOM     14  H   UNL     1       3.255  11.107   1.884  0.00  0.00    +0.000 HD
ENDBRANCH  12  13
ENDBRANCH   1  12
TORSDOF 4
ENDMDL
MODEL 2
REMARK VINA RESULT:    -3.473     11.370     11.939
REMARK INTER + INTRA:          -3.981
REMARK INTER:                  -3.981
REMARK INTRA:                   0.000
REMARK UNBOUND:                 0.000
REMARK  Name = 6590
REMARK  4 active torsions:
REMARK  status: ('A' for Active; 'I' for Inactive)
REMARK    1  A    between atoms: O_1  and  C_6
REMARK    2  A    between atoms: C_3  and  C_4
REMARK    3  A    between atoms: C_3  and  C_5
REMARK    4  A    between atoms: C_3  and  C_6
REMARK                            x       y       z     vdW  Elec       q    Type
REMARK                         _______ _______ _______ _____ _____    ______ ____
ROOT
ATOM      1  C   UNL     1      -3.083   7.917  -9.985  0.00  0.00    +0.000 C 
ATOM      2  H   UNL     1      -4.016   8.212 -10.484  0.00  0.00    +0.000 HD
ENDROOT
BRANCH   1   3
ATOM      3  C   UNL     1      -2.145   7.276 -11.000  0.00  0.00    +0.000 C 
ATOM      4  H   UNL     1      -2.455   7.512 -12.023  0.00  0.00    +0.000 HD
ATOM      5  H   UNL     1      -2.125   6.187 -10.890  0.00  0.00    +0.000 HD
ATOM      6  H   UNL     1      -1.120   7.638 -10.866  0.00  0.00    +0.000 HD
ENDBRANCH   1   3
BRANCH   1   7
ATOM      7  C   UNL     1      -3.446   6.931  -8.878  0.00  0.00    +0.000 C 
ATOM      8  H   UNL     1      -4.482   6.588  -8.971  0.00  0.00    +0.000 HD
ATOM      9  H   UNL     1      -3.328   7.391  -7.891  0.00  0.00    +0.000 HD
ATOM     10  H   UNL     1      -2.802   6.045  -8.920  0.00  0.00    +0.000 HD
ENDBRANCH   1   7
BRANCH   1  12
ATOM     11  O   UNL     1      -1.446   9.721  -9.838  0.00  0.00    +0.000 OA
ATOM     12  C   UNL     1      -2.442   9.161  -9.405  0.00  0.00    +0.000 C 
BRANCH  12  13
ATOM     13  O   UNL     1      -3.134   9.593  -8.320  0.00  0.00    +0.000 OA
ATOM     14  H   UNL     1      -3.497   8.848  -7.797  0.00  0.00    +0.000 HD
ENDBRANCH  12  13
ENDBRANCH   1  12
TORSDOF 4
ENDMDL
MODEL 3
REMARK VINA RESULT:    -3.453     14.049     14.895
REMARK INTER + INTRA:          -3.958
REMARK INTER:                  -3.958
REMARK INTRA:                   0.000
REMARK UNBOUND:                 0.000
REMARK  Name = 6590
REMARK  4 active torsions:
REMARK  status: ('A' for Active; 'I' for Inactive)
REMARK    1  A    between atoms: O_1  and  C_6
REMARK    2  A    between atoms: C_3  and  C_4
REMARK    3  A    between atoms: C_3  and  C_5
REMARK    4  A    between atoms: C_3  and  C_6
REMARK                            x       y       z     vdW  Elec       q    Type
REMARK                         _______ _______ _______ _____ _____    ______ ____
ROOT
ATOM      1  C   UNL     1      -9.064   4.966  -5.532  0.00  0.00    +0.000 C 
ATOM      2  H   UNL     1      -8.824   4.742  -6.579  0.00  0.00    +0.000 HD
ENDROOT
BRANCH   1   3
ATOM      3  C   UNL     1      -8.420   3.922  -4.628  0.00  0.00    +0.000 C 
ATOM      4  H   UNL     1      -8.896   2.945  -4.757  0.00  0.00    +0.000 HD
ATOM      5  H   UNL     1      -8.499   4.206  -3.574  0.00  0.00    +0.000 HD
ATOM      6  H   UNL     1      -7.354   3.811  -4.858  0.00  0.00    +0.000 HD
ENDBRANCH   1   3
BRANCH   1   7
ATOM      7  C   UNL     1     -10.583   4.945  -5.394  0.00  0.00    +0.000 C 
ATOM      8  H   UNL     1     -11.073   4.830  -6.367  0.00  0.00    +0.000 HD
ATOM      9  H   UNL     1     -10.946   5.873  -4.938  0.00  0.00    +0.000 HD
ATOM     10  H   UNL     1     -10.905   4.108  -4.764  0.00  0.00    +0.000 HD
ENDBRANCH   1   7
BRANCH   1  12
ATOM     11  O   UNL     1      -8.831   7.386  -5.749  0.00  0.00    +0.000 OA
ATOM     12  C   UNL     1      -8.515   6.339  -5.203  0.00  0.00    +0.000 C 
BRANCH  12  13
ATOM     13  O   UNL     1      -7.610   6.263  -4.193  0.00  0.00    +0.000 OA
ATOM     14  H   UNL     1      -7.516   7.117  -3.722  0.00  0.00    +0.000 HD
ENDBRANCH  12  13
ENDBRANCH   1  12
TORSDOF 4
ENDMDL
MODEL 4
REMARK VINA RESULT:    -3.441      1.799      2.351
REMARK INTER + INTRA:          -3.944
REMARK INTER:                  -3.944
REMARK INTRA:                   0.000
REMARK UNBOUND:                 0.000
REMARK  Name = 6590
REMARK  4 active torsions:
REMARK  status: ('A' for Active; 'I' for Inactive)
REMARK    1  A    between atoms: O_1  and  C_6
REMARK    2  A    between atoms: C_3  and  C_4
REMARK    3  A    between atoms: C_3  and  C_5
REMARK    4  A    between atoms: C_3  and  C_6
REMARK                            x       y       z     vdW  Elec       q    Type
REMARK                         _______ _______ _______ _____ _____    ______ ____
ROOT
ATOM      1  C   UNL     1       3.796  11.482   0.130  0.00  0.00    +0.000 C 
ATOM      2  H   UNL     1       3.196  12.305   0.537  0.00  0.00    +0.000 HD
ENDROOT
BRANCH   1   3
ATOM      3  C   UNL     1       5.273  11.847   0.198  0.00  0.00    +0.000 C 
ATOM      4  H   UNL     1       5.838  11.094   0.757  0.00  0.00    +0.000 HD
ATOM      5  H   UNL     1       5.420  12.817   0.686  0.00  0.00    +0.000 HD
ATOM      6  H   UNL     1       5.705  11.917  -0.806  0.00  0.00    +0.000 HD
ENDBRANCH   1   3
BRANCH   1   7
ATOM      7  C   UNL     1       3.354  11.262  -1.314  0.00  0.00    +0.000 C 
ATOM      8  H   UNL     1       3.179  12.212  -1.829  0.00  0.00    +0.000 HD
ATOM      9  H   UNL     1       2.428  10.678  -1.354  0.00  0.00    +0.000 HD
ATOM     10  H   UNL     1       4.122  10.720  -1.877  0.00  0.00    +0.000 HD
ENDBRANCH   1   7
BRANCH   1  12
ATOM     11  O   UNL     1       3.180  10.233   2.134  0.00  0.00    +0.000 OA
ATOM     12  C   UNL     1       3.533  10.245   0.965  0.00  0.00    +0.000 C 
BRANCH  12  13
ATOM     13  O   UNL     1       3.735   9.121   0.230  0.00  0.00    +0.000 OA
ATOM     14  H   UNL     1       2.889   8.706  -0.043  0.00  0.00    +0.000 HD
ENDBRANCH  12  13
ENDBRANCH   1  12
TORSDOF 4
ENDMDL
MODEL 5
REMARK VINA RESULT:    -3.395     28.408     29.225
REMARK INTER + INTRA:          -3.891
REMARK INTER:                  -3.891
REMARK INTRA:                   0.000
REMARK UNBOUND:                 0.000
REMARK  Name = 6590
REMARK  4 active torsions:
REMARK  status: ('A' for Active; 'I' for Inactive)
REMARK    1  A    between atoms: O_1  and  C_6
REMARK    2  A    between atoms: C_3  and  C_4
REMARK    3  A    between atoms: C_3  and  C_5
REMARK    4  A    between atoms: C_3  and  C_6
REMARK                            x       y       z     vdW  Elec       q    Type
REMARK                         _______ _______ _______ _____ _____    ______ ____
ROOT
ATOM      1  C   UNL     1     -20.575  -1.206   7.239  0.00  0.00    +0.000 C 
ATOM      2  H   UNL     1     -19.603  -1.254   7.748  0.00  0.00    +0.000 HD
ENDROOT
BRANCH   1   3
ATOM      3  C   UNL     1     -20.413  -0.490   5.903  0.00  0.00    +0.000 C 
ATOM      4  H   UNL     1     -20.894  -1.053   5.096  0.00  0.00    +0.000 HD
ATOM      5  H   UNL     1     -19.356  -0.359   5.648  0.00  0.00    +0.000 HD
ATOM      6  H   UNL     1     -20.868   0.506   5.937  0.00  0.00    +0.000 HD
ENDBRANCH   1   3
BRANCH   1   7
ATOM      7  C   UNL     1     -21.535  -0.448   8.152  0.00  0.00    +0.000 C 
ATOM      8  H   UNL     1     -21.058  -0.178   9.100  0.00  0.00    +0.000 HD
ATOM      9  H   UNL     1     -22.419  -1.054   8.377  0.00  0.00    +0.000 HD
ATOM     10  H   UNL     1     -21.871   0.481   7.677  0.00  0.00    +0.000 HD
ENDBRANCH   1   7
BRANCH   1  12
ATOM     11  O   UNL     1     -20.740  -3.345   6.077  0.00  0.00    +0.000 OA
ATOM     12  C   UNL     1     -21.060  -2.622   7.008  0.00  0.00    +0.000 C 
BRANCH  12  13
ATOM     13  O   UNL     1     -21.911  -3.002   7.996  0.00  0.00    +0.000 OA
ATOM     14  H   UNL     1     -22.480  -2.261   8.294  0.00  0.00    +0.000 HD
ENDBRANCH  12  13
ENDBRANCH   1  12
TORSDOF 4
ENDMDL
MODEL 6
REMARK VINA RESULT:    -3.394     12.298     13.267
REMARK INTER + INTRA:          -3.891
REMARK INTER:                  -3.891
REMARK INTRA:                   0.000
REMARK UNBOUND:                 0.000
REMARK  Name = 6590
REMARK  4 active torsions:
REMARK  status: ('A' for Active; 'I' for Inactive)
REMARK    1  A    between atoms: O_1  and  C_6
REMARK    2  A    between atoms: C_3  and  C_4
REMARK    3  A    between atoms: C_3  and  C_5
REMARK    4  A    between atoms: C_3  and  C_6
REMARK                            x       y       z     vdW  Elec       q    Type
REMARK                         _______ _______ _______ _____ _____    ______ ____
ROOT
ATOM      1  C   UNL     1      -3.195   6.903  -9.230  0.00  0.00    +0.000 C 
ATOM      2  H   UNL     1      -2.452   6.273  -8.723  0.00  0.00    +0.000 HD
ENDROOT
BRANCH   1   3
ATOM      3  C   UNL     1      -2.992   8.356  -8.821  0.00  0.00    +0.000 C 
ATOM      4  H   UNL     1      -2.106   8.780  -9.305  0.00  0.00    +0.000 HD
ATOM      5  H   UNL     1      -2.868   8.450  -7.737  0.00  0.00    +0.000 HD
ATOM      6  H   UNL     1      -3.857   8.966  -9.105  0.00  0.00    +0.000 HD
ENDBRANCH   1   3
BRANCH   1   7
ATOM      7  C   UNL     1      -4.578   6.406  -8.817  0.00  0.00    +0.000 C 
ATOM      8  H   UNL     1      -5.216   6.226  -9.688  0.00  0.00    +0.000 HD
ATOM      9  H   UNL     1      -5.079   7.139  -8.174  0.00  0.00    +0.000 HD
ATOM     10  H   UNL     1      -4.502   5.464  -8.264  0.00  0.00    +0.000 HD
ENDBRANCH   1   7
BRANCH   1  12
ATOM     11  O   UNL     1      -3.884   6.767 -11.568  0.00  0.00    +0.000 OA
ATOM     12  C   UNL     1      -2.999   6.757 -10.725  0.00  0.00    +0.000 C 
BRANCH  12  13
ATOM     13  O   UNL     1      -1.681   6.620 -11.023  0.00  0.00    +0.000 OA
ATOM     14  H   UNL     1      -1.150   6.389 -10.232  0.00  0.00    +0.000 HD
ENDBRANCH  12  13
ENDBRANCH   1  12
TORSDOF 4
ENDMDL
MODEL 7
REMARK VINA RESULT:    -3.389      1.269      2.084
REMARK INTER + INTRA:          -3.884
REMARK INTER:                  -3.884
REMARK INTRA:                   0.000
REMARK UNBOUND:                 0.000
REMARK  Name = 6590
REMARK  4 active torsions:
REMARK  status: ('A' for Active; 'I' for Inactive)
REMARK    1  A    between atoms: O_1  and  C_6
REMARK    2  A    between atoms: C_3  and  C_4
REMARK    3  A    between atoms: C_3  and  C_5
REMARK    4  A    between atoms: C_3  and  C_6
REMARK                            x       y       z     vdW  Elec       q    Type
REMARK                         _______ _______ _______ _____ _____    ______ ____
ROOT
ATOM      1  C   UNL     1       4.213  10.487  -0.551  0.00  0.00    +0.000 C 
ATOM      2  H   UNL     1       4.178   9.427  -0.835  0.00  0.00    +0.000 HD
ENDROOT
BRANCH   1   3
ATOM      3  C   UNL     1       3.237  11.277  -1.414  0.00  0.00    +0.000 C 
ATOM      4  H   UNL     1       2.704  12.025  -0.819  0.00  0.00    +0.000 HD
ATOM      5  H   UNL     1       2.496  10.618  -1.881  0.00  0.00    +0.000 HD
ATOM      6  H   UNL     1       3.764  11.799  -2.220  0.00  0.00    +0.000 HD
ENDBRANCH   1   3
BRANCH   1   7
ATOM      7  C   UNL     1       5.644  10.972  -0.761  0.00  0.00    +0.000 C 
ATOM      8  H   UNL     1       6.368  10.306  -0.280  0.00  0.00    +0.000 HD
ATOM      9  H   UNL     1       5.780  11.977  -0.346  0.00  0.00    +0.000 HD
ATOM     10  H   UNL     1       5.889  11.009  -1.828  0.00  0.00    +0.000 HD
ENDBRANCH   1   7
BRANCH   1  12
ATOM     11  O   UNL     1       4.120   9.815   1.794  0.00  0.00    +0.000 OA
ATOM     12  C   UNL     1       3.817  10.600   0.907  0.00  0.00    +0.000 C 
BRANCH  12  13
ATOM     13  O   UNL     1       3.073  11.717   1.115  0.00  0.00    +0.000 OA
ATOM     14  H   UNL     1       2.363  11.565   1.775  0.00  0.00    +0.000 HD
ENDBRANCH  12  13
ENDBRANCH   1  12
TORSDOF 4
ENDMDL
MODEL 8
REMARK VINA RESULT:    -3.358     28.392     29.196
REMARK INTER + INTRA:          -3.849
REMARK INTER:                  -3.849
REMARK INTRA:                   0.000
REMARK UNBOUND:                 0.000
REMARK  Name = 6590
REMARK  4 active torsions:
REMARK  status: ('A' for Active; 'I' for Inactive)
REMARK    1  A    between atoms: O_1  and  C_6
REMARK    2  A    between atoms: C_3  and  C_4
REMARK    3  A    between atoms: C_3  and  C_5
REMARK    4  A    between atoms: C_3  and  C_6
REMARK                            x       y       z     vdW  Elec       q    Type
REMARK                         _______ _______ _______ _____ _____    ______ ____
ROOT
ATOM      1  C   UNL     1     -20.488  -1.549   7.081  0.00  0.00    +0.000 C 
ATOM      2  H   UNL     1     -19.512  -1.550   7.584  0.00  0.00    +0.000 HD
ENDROOT
BRANCH   1   3
ATOM      3  C   UNL     1     -20.690  -2.878   6.364  0.00  0.00    +0.000 C 
ATOM      4  H   UNL     1     -21.339  -3.542   6.945  0.00  0.00    +0.000 HD
ATOM      5  H   UNL     1     -19.736  -3.389   6.198  0.00  0.00    +0.000 HD
ATOM      6  H   UNL     1     -21.154  -2.726   5.383  0.00  0.00    +0.000 HD
ENDBRANCH   1   3
BRANCH   1   7
ATOM      7  C   UNL     1     -20.493  -0.388   6.090  0.00  0.00    +0.000 C 
ATOM      8  H   UNL     1     -20.872   0.531   6.551  0.00  0.00    +0.000 HD
ATOM      9  H   UNL     1     -21.122  -0.617   5.223  0.00  0.00    +0.000 HD
ATOM     10  H   UNL     1     -19.479  -0.180   5.730  0.00  0.00    +0.000 HD
ENDBRANCH   1   7
BRANCH   1  12
ATOM     11  O   UNL     1     -22.265  -2.245   8.602  0.00  0.00    +0.000 OA
ATOM     12  C   UNL     1     -21.564  -1.362   8.131  0.00  0.00    +0.000 C 
BRANCH  12  13
ATOM     13  O   UNL     1     -21.649  -0.058   8.500  0.00  0.00    +0.000 OA
ATOM     14  H   UNL     1     -22.328   0.425   7.984  0.00  0.00    +0.000 HD
ENDBRANCH  12  13
ENDBRANCH   1  12
TORSDOF 4
ENDMDL
MODEL 9
REMARK VINA RESULT:    -3.338      1.149      2.055
REMARK INTER + INTRA:          -3.826
REMARK INTER:                  -3.826
REMARK INTRA:                   0.000
REMARK UNBOUND:                 0.000
REMARK  Name = 6590
REMARK  4 active torsions:
REMARK  status: ('A' for Active; 'I' for Inactive)
REMARK    1  A    between atoms: O_1  and  C_6
REMARK    2  A    between atoms: C_3  and  C_4
REMARK    3  A    between atoms: C_3  and  C_5
REMARK    4  A    between atoms: C_3  and  C_6
REMARK                            x       y       z     vdW  Elec       q    Type
REMARK                         _______ _______ _______ _____ _____    ______ ____
ROOT
ATOM      1  C   UNL     1       3.866  11.025  -0.049  0.00  0.00    +0.000 C 
ATOM      2  H   UNL     1       3.206  11.532   0.666  0.00  0.00    +0.000 HD
ENDROOT
BRANCH   1   3
ATOM      3  C   UNL     1       3.322  11.207  -1.460  0.00  0.00    +0.000 C 
ATOM      4  H   UNL     1       2.339  11.689  -1.442  0.00  0.00    +0.000 HD
ATOM      5  H   UNL     1       3.222  10.245  -1.975  0.00  0.00    +0.000 HD
ATOM      6  H   UNL     1       3.993  11.831  -2.060  0.00  0.00    +0.000 HD
ENDBRANCH   1   3
BRANCH   1   7
ATOM      7  C   UNL     1       3.909   9.548   0.333  0.00  0.00    +0.000 C 
ATOM      8  H   UNL     1       2.952   9.213   0.746  0.00  0.00    +0.000 HD
ATOM      9  H   UNL     1       4.687   9.361   1.082  0.00  0.00    +0.000 HD
ATOM     10  H   UNL     1       4.124   8.926  -0.543  0.00  0.00    +0.000 HD
ENDBRANCH   1   7
BRANCH   1  12
ATOM     11  O   UNL     1       6.293  11.121  -0.290  0.00  0.00    +0.000 OA
ATOM     12  C   UNL     1       5.244  11.645   0.055  0.00  0.00    +0.000 C 
BRANCH  12  13
ATOM     13  O   UNL     1       5.168  12.893   0.584  0.00  0.00    +0.000 OA
ATOM     14  H   UNL     1       5.595  12.943   1.465  0.00  0.00    +0.000 HD
ENDBRANCH  12  13
ENDBRANCH   1  12
TORSDOF 4
ENDMDL
MODEL 10
REMARK VINA RESULT:    -3.318     29.258     30.073
REMARK INTER + INTRA:          -3.803
REMARK INTER:                  -3.803
REMARK INTRA:                   0.000
REMARK UNBOUND:                 0.000
REMARK  Name = 6590
REMARK  4 active torsions:
REMARK  status: ('A' for Active; 'I' for Inactive)
REMARK    1  A    between atoms: O_1  and  C_6
REMARK    2  A    between atoms: C_3  and  C_4
REMARK    3  A    between atoms: C_3  and  C_5
REMARK    4  A    between atoms: C_3  and  C_6
REMARK                            x       y       z     vdW  Elec       q    Type
REMARK                         _______ _______ _______ _____ _____    ______ ____
ROOT
ATOM      1  C   UNL     1      -9.021 -11.224  15.659  0.00  0.00    +0.000 C 
ATOM      2  H   UNL     1      -8.451 -10.899  16.539  0.00  0.00    +0.000 HD
ENDROOT
BRANCH   1   3
ATOM      3  C   UNL     1      -9.905 -12.407  16.035  0.00  0.00    +0.000 C 
ATOM      4  H   UNL     1      -9.575 -12.860  16.975  0.00  0.00    +0.000 HD
ATOM      5  H   UNL     1      -9.887 -13.179  15.258  0.00  0.00    +0.000 HD
ATOM      6  H   UNL     1     -10.947 -12.092  16.159  0.00  0.00    +0.000 HD
ENDBRANCH   1   3
BRANCH   1   7
ATOM      7  C   UNL     1      -8.017 -11.615  14.579  0.00  0.00    +0.000 C 
ATOM      8  H   UNL     1      -8.461 -12.294  13.844  0.00  0.00    +0.000 HD
ATOM      9  H   UNL     1      -7.145 -12.113  15.018  0.00  0.00    +0.000 HD
ATOM     10  H   UNL     1      -7.665 -10.730  14.037  0.00  0.00    +0.000 HD
ENDBRANCH   1   7
BRANCH   1  12
ATOM     11  O   UNL     1     -11.103 -10.031  15.211  0.00  0.00    +0.000 OA
ATOM     12  C   UNL     1      -9.882 -10.066  15.196  0.00  0.00    +0.000 C 
BRANCH  12  13
ATOM     13  O   UNL     1      -9.106  -9.040  14.760  0.00  0.00    +0.000 OA
ATOM     14  H   UNL     1      -8.688  -9.239  13.896  0.00  0.00    +0.000 HD
ENDBRANCH  12  13
ENDBRANCH   1  12
TORSDOF 4
ENDMDL
