MODEL 1
REMARK VINA RESULT:    -3.803      0.000      0.000
REMARK INTER + INTRA:          -4.932
REMARK INTER:                  -4.788
REMARK INTRA:                  -0.143
REMARK UNBOUND:                -0.128
REMARK  Name = 8038
REMARK  6 active torsions:
REMARK  status: ('A' for Active; 'I' for Inactive)
REMARK    1  A    between atoms: O_1  and  C_4
REMARK    2  A    between atoms: O_1  and  C_7
REMARK    3  A    between atoms: C_3  and  C_4
REMARK    4  A    between atoms: C_3  and  C_5
REMARK    5  A    between atoms: C_3  and  C_6
REMARK    6  A    between atoms: C_7  and  C_8
REMARK                            x       y       z     vdW  Elec       q    Type
REMARK                         _______ _______ _______ _____ _____    ______ ____
ROOT
ATOM      1  C   UNL     1       6.733   8.614   0.920  0.00  0.00    +0.000 C 
ATOM      2  H   UNL     1       6.912   7.830   1.667  0.00  0.00    +0.000 HD
ENDROOT
BRANCH   1   3
ATOM      3  C   UNL     1       6.688   7.937  -0.451  0.00  0.00    +0.000 C 
ATOM      4  H   UNL     1       7.674   7.961  -0.929  0.00  0.00    +0.000 HD
ATOM      5  H   UNL     1       5.978   8.439  -1.118  0.00  0.00    +0.000 HD
ATOM      6  H   UNL     1       6.389   6.887  -0.365  0.00  0.00    +0.000 HD
ENDBRANCH   1   3
BRANCH   1   7
ATOM      7  C   UNL     1       7.883   9.618   0.979  0.00  0.00    +0.000 C 
ATOM      8  H   UNL     1       8.656   9.283   1.680  0.00  0.00    +0.000 HD
ATOM      9  H   UNL     1       7.527  10.596   1.318  0.00  0.00    +0.000 HD
ATOM     10  H   UNL     1       8.350   9.747  -0.003  0.00  0.00    +0.000 HD
ENDBRANCH   1   7
BRANCH   1  11
ATOM     11  C   UNL     1       5.405   9.303   1.246  0.00  0.00    +0.000 C 
ATOM     12  H   UNL     1       4.573   8.635   0.996  0.00  0.00    +0.000 HD
ATOM     13  H   UNL     1       5.356   9.543   2.315  0.00  0.00    +0.000 HD
BRANCH  11  14
ATOM     14  O   UNL     1       5.282  10.499   0.487  0.00  0.00    +0.000 OA
BRANCH  14  16
ATOM     15  O   UNL     1       3.317  11.371   1.333  0.00  0.00    +0.000 OA
ATOM     16  C   UNL     1       4.020  11.019   0.395  0.00  0.00    +0.000 C 
BRANCH  16  17
ATOM     17  C   UNL     1       3.605  11.100  -1.042  0.00  0.00    +0.000 C 
ATOM     18  H   UNL     1       4.478  10.976  -1.688  0.00  0.00    +0.000 HD
ATOM     19  H   UNL     1       3.119  12.061  -1.232  0.00  0.00    +0.000 HD
ATOM     20  H   UNL     1       2.893  10.300  -1.260  0.00  0.00    +0.000 HD
ENDBRANCH  16  17
ENDBRANCH  14  16
ENDBRANCH  11  14
ENDBRANCH   1  11
TORSDOF 6
ENDMDL
MODEL 2
REMARK VINA RESULT:    -3.633      2.261      2.804
REMARK INTER + INTRA:          -4.716
REMARK INTER:                  -4.644
REMARK INTRA:                  -0.072
REMARK UNBOUND:                -0.128
REMARK  Name = 8038
REMARK  6 active torsions:
REMARK  status: ('A' for Active; 'I' for Inactive)
REMARK    1  A    between atoms: O_1  and  C_4
REMARK    2  A    between atoms: O_1  and  C_7
REMARK    3  A    between atoms: C_3  and  C_4
REMARK    4  A    between atoms: C_3  and  C_5
REMARK    5  A    between atoms: C_3  and  C_6
REMARK    6  A    between atoms: C_7  and  C_8
REMARK                            x       y       z     vdW  Elec       q    Type
REMARK                         _______ _______ _______ _____ _____    ______ ____
ROOT
ATOM      1  C   UNL     1       4.816   7.865   3.496  0.00  0.00    +0.000 C 
ATOM      2  H   UNL     1       3.814   7.418   3.489  0.00  0.00    +0.000 HD
ENDROOT
BRANCH   1   3
ATOM      3  C   UNL     1       5.827   6.723   3.378  0.00  0.00    +0.000 C 
ATOM      4  H   UNL     1       5.495   5.984   2.642  0.00  0.00    +0.000 HD
ATOM      5  H   UNL     1       5.958   6.210   4.337  0.00  0.00    +0.000 HD
ATOM      6  H   UNL     1       6.806   7.093   3.056  0.00  0.00    +0.000 HD
ENDBRANCH   1   3
BRANCH   1   7
ATOM      7  C   UNL     1       5.010   8.613   4.813  0.00  0.00    +0.000 C 
ATOM      8  H   UNL     1       4.174   8.421   5.496  0.00  0.00    +0.000 HD
ATOM      9  H   UNL     1       5.060   9.693   4.643  0.00  0.00    +0.000 HD
ATOM     10  H   UNL     1       5.933   8.304   5.314  0.00  0.00    +0.000 HD
ENDBRANCH   1   7
BRANCH   1  11
ATOM     11  C   UNL     1       4.926   8.831   2.312  0.00  0.00    +0.000 C 
ATOM     12  H   UNL     1       5.493   9.720   2.615  0.00  0.00    +0.000 HD
ATOM     13  H   UNL     1       5.446   8.349   1.477  0.00  0.00    +0.000 HD
BRANCH  11  14
ATOM     14  O   UNL     1       3.628   9.232   1.894  0.00  0.00    +0.000 OA
BRANCH  14  16
ATOM     15  O   UNL     1       3.288  11.447   1.332  0.00  0.00    +0.000 OA
ATOM     16  C   UNL     1       3.581  10.297   1.036  0.00  0.00    +0.000 C 
BRANCH  16  17
ATOM     17  C   UNL     1       3.947   9.853  -0.348  0.00  0.00    +0.000 C 
ATOM     18  H   UNL     1       4.237   8.800  -0.335  0.00  0.00    +0.000 HD
ATOM     19  H   UNL     1       4.761  10.473  -0.731  0.00  0.00    +0.000 HD
ATOM     20  H   UNL     1       3.081   9.968  -1.006  0.00  0.00    +0.000 HD
ENDBRANCH  16  17
ENDBRANCH  14  16
ENDBRANCH  11  14
ENDBRANCH   1  11
TORSDOF 6
ENDMDL
MODEL 3
REMARK VINA RESULT:    -3.610      1.859      2.078
REMARK INTER + INTRA:          -4.687
REMARK INTER:                  -4.560
REMARK INTRA:                  -0.127
REMARK UNBOUND:                -0.128
REMARK  Name = 8038
REMARK  6 active torsions:
REMARK  status: ('A' for Active; 'I' for Inactive)
REMARK    1  A    between atoms: O_1  and  C_4
REMARK    2  A    between atoms: O_1  and  C_7
REMARK    3  A    between atoms: C_3  and  C_4
REMARK    4  A    between atoms: C_3  and  C_5
REMARK    5  A    between atoms: C_3  and  C_6
REMARK    6  A    between atoms: C_7  and  C_8
REMARK                            x       y       z     vdW  Elec       q    Type
REMARK                         _______ _______ _______ _____ _____    ______ ____
ROOT
ATOM      1  C   UNL     1       7.398  10.187  -0.283  0.00  0.00    +0.000 C 
ATOM      2  H   UNL     1       7.857  10.413   0.688  0.00  0.00    +0.000 HD
ENDROOT
BRANCH   1   3
ATOM      3  C   UNL     1       6.963   8.720  -0.251  0.00  0.00    +0.000 C 
ATOM      4  H   UNL     1       7.803   8.071   0.017  0.00  0.00    +0.000 HD
ATOM      5  H   UNL     1       6.586   8.398  -1.228  0.00  0.00    +0.000 HD
ATOM      6  H   UNL     1       6.171   8.558   0.488  0.00  0.00    +0.000 HD
ENDBRANCH   1   3
BRANCH   1   7
ATOM      7  C   UNL     1       8.438  10.408  -1.379  0.00  0.00    +0.000 C 
ATOM      8  H   UNL     1       9.444  10.170  -1.015  0.00  0.00    +0.000 HD
ATOM      9  H   UNL     1       8.441  11.453  -1.706  0.00  0.00    +0.000 HD
ATOM     10  H   UNL     1       8.236   9.779  -2.252  0.00  0.00    +0.000 HD
ENDBRANCH   1   7
BRANCH   1  11
ATOM     11  C   UNL     1       6.201  11.120  -0.485  0.00  0.00    +0.000 C 
ATOM     12  H   UNL     1       6.070  11.748   0.404  0.00  0.00    +0.000 HD
ATOM     13  H   UNL     1       6.371  11.769  -1.353  0.00  0.00    +0.000 HD
BRANCH  11  14
ATOM     14  O   UNL     1       5.021  10.355  -0.690  0.00  0.00    +0.000 OA
BRANCH  14  16
ATOM     15  O   UNL     1       3.206  11.151  -1.878  0.00  0.00    +0.000 OA
ATOM     16  C   UNL     1       3.867  11.072  -0.851  0.00  0.00    +0.000 C 
BRANCH  16  17
ATOM     17  C   UNL     1       3.514  11.764   0.430  0.00  0.00    +0.000 C 
ATOM     18  H   UNL     1       3.289  11.024   1.201  0.00  0.00    +0.000 HD
ATOM     19  H   UNL     1       2.658  12.425   0.269  0.00  0.00    +0.000 HD
ATOM     20  H   UNL     1       4.363  12.368   0.762  0.00  0.00    +0.000 HD
ENDBRANCH  16  17
ENDBRANCH  14  16
ENDBRANCH  11  14
ENDBRANCH   1  11
TORSDOF 6
ENDMDL
MODEL 4
REMARK VINA RESULT:    -3.546     28.734     29.497
REMARK INTER + INTRA:          -4.606
REMARK INTER:                  -4.472
REMARK INTRA:                  -0.134
REMARK UNBOUND:                -0.128
REMARK  Name = 8038
REMARK  6 active torsions:
REMARK  status: ('A' for Active; 'I' for Inactive)
REMARK    1  A    between atoms: O_1  and  C_4
REMARK    2  A    between atoms: O_1  and  C_7
REMARK    3  A    between atoms: C_3  and  C_4
REMARK    4  A    between atoms: C_3  and  C_5
REMARK    5  A    between atoms: C_3  and  C_6
REMARK    6  A    between atoms: C_7  and  C_8
REMARK                            x       y       z     vdW  Elec       q    Type
REMARK                         _______ _______ _______ _____ _____    ______ ____
ROOT
ATOM      1  C   UNL     1     -21.144  -1.879   5.555  0.00  0.00    +0.000 C 
ATOM      2  H   UNL     1     -22.168  -1.903   5.948  0.00  0.00    +0.000 HD
ENDROOT
BRANCH   1   3
ATOM      3  C   UNL     1     -20.436  -0.685   6.197  0.00  0.00    +0.000 C 
ATOM      4  H   UNL     1     -19.608  -1.019   6.832  0.00  0.00    +0.000 HD
ATOM      5  H   UNL     1     -21.124  -0.103   6.820  0.00  0.00    +0.000 HD
ATOM      6  H   UNL     1     -20.019  -0.016   5.437  0.00  0.00    +0.000 HD
ENDBRANCH   1   3
BRANCH   1   7
ATOM      7  C   UNL     1     -21.204  -1.708   4.038  0.00  0.00    +0.000 C 
ATOM      8  H   UNL     1     -22.019  -1.032   3.756  0.00  0.00    +0.000 HD
ATOM      9  H   UNL     1     -21.383  -2.669   3.546  0.00  0.00    +0.000 HD
ATOM     10  H   UNL     1     -20.270  -1.293   3.647  0.00  0.00    +0.000 HD
ENDBRANCH   1   7
BRANCH   1  11
ATOM     11  C   UNL     1     -20.452  -3.198   5.916  0.00  0.00    +0.000 C 
ATOM     12  H   UNL     1     -19.367  -3.046   5.949  0.00  0.00    +0.000 HD
ATOM     13  H   UNL     1     -20.790  -3.545   6.900  0.00  0.00    +0.000 HD
BRANCH  11  14
ATOM     14  O   UNL     1     -20.752  -4.184   4.937  0.00  0.00    +0.000 OA
BRANCH  14  16
ATOM     15  O   UNL     1     -18.766  -5.325   5.237  0.00  0.00    +0.000 OA
ATOM     16  C   UNL     1     -19.702  -4.964   4.536  0.00  0.00    +0.000 C 
BRANCH  16  17
ATOM     17  C   UNL     1     -19.857  -5.323   3.090  0.00  0.00    +0.000 C 
ATOM     18  H   UNL     1     -20.273  -6.329   3.000  0.00  0.00    +0.000 HD
ATOM     19  H   UNL     1     -18.887  -5.261   2.588  0.00  0.00    +0.000 HD
ATOM     20  H   UNL     1     -20.542  -4.618   2.612  0.00  0.00    +0.000 HD
ENDBRANCH  16  17
ENDBRANCH  14  16
ENDBRANCH  11  14
ENDBRANCH   1  11
TORSDOF 6
ENDMDL
MODEL 5
REMARK VINA RESULT:    -3.507     13.013     14.280
REMARK INTER + INTRA:          -4.558
REMARK INTER:                  -4.400
REMARK INTRA:                  -0.158
REMARK UNBOUND:                -0.128
REMARK  Name = 8038
REMARK  6 active torsions:
REMARK  status: ('A' for Active; 'I' for Inactive)
REMARK    1  A    between atoms: O_1  and  C_4
REMARK    2  A    between atoms: O_1  and  C_7
REMARK    3  A    between atoms: C_3  and  C_4
REMARK    4  A    between atoms: C_3  and  C_5
REMARK    5  A    between atoms: C_3  and  C_6
REMARK    6  A    between atoms: C_7  and  C_8
REMARK                            x       y       z     vdW  Elec       q    Type
REMARK                         _______ _______ _______ _____ _____    ______ ____
ROOT
ATOM      1  C   UNL     1      -3.196   7.769  -9.855  0.00  0.00    +0.000 C 
ATOM      2  H   UNL     1      -4.102   8.151 -10.343  0.00  0.00    +0.000 HD
ENDROOT
BRANCH   1   3
ATOM      3  C   UNL     1      -3.634   6.714  -8.838  0.00  0.00    +0.000 C 
ATOM      4  H   UNL     1      -4.338   7.140  -8.116  0.00  0.00    +0.000 HD
ATOM      5  H   UNL     1      -2.776   6.321  -8.281  0.00  0.00    +0.000 HD
ATOM      6  H   UNL     1      -4.133   5.873  -9.330  0.00  0.00    +0.000 HD
ENDBRANCH   1   3
BRANCH   1   7
ATOM      7  C   UNL     1      -2.494   8.928  -9.150  0.00  0.00    +0.000 C 
ATOM      8  H   UNL     1      -2.094   9.642  -9.879  0.00  0.00    +0.000 HD
ATOM      9  H   UNL     1      -1.656   8.564  -8.546  0.00  0.00    +0.000 HD
ATOM     10  H   UNL     1      -3.181   9.467  -8.490  0.00  0.00    +0.000 HD
ENDBRANCH   1   7
BRANCH   1  11
ATOM     11  C   UNL     1      -2.283   7.166 -10.927  0.00  0.00    +0.000 C 
ATOM     12  H   UNL     1      -1.782   6.277 -10.525  0.00  0.00    +0.000 HD
ATOM     13  H   UNL     1      -2.873   6.871 -11.804  0.00  0.00    +0.000 HD
BRANCH  11  14
ATOM     14  O   UNL     1      -1.300   8.116 -11.316  0.00  0.00    +0.000 OA
BRANCH  14  16
ATOM     15  O   UNL     1      -0.017   8.730 -13.137  0.00  0.00    +0.000 OA
ATOM     16  C   UNL     1      -0.906   8.063 -12.625  0.00  0.00    +0.000 C 
BRANCH  16  17
ATOM     17  C   UNL     1      -1.730   7.054 -13.365  0.00  0.00    +0.000 C 
ATOM     18  H   UNL     1      -2.055   6.267 -12.681  0.00  0.00    +0.000 HD
ATOM     19  H   UNL     1      -1.146   6.633 -14.188  0.00  0.00    +0.000 HD
ATOM     20  H   UNL     1      -2.615   7.543 -13.781  0.00  0.00    +0.000 HD
ENDBRANCH  16  17
ENDBRANCH  14  16
ENDBRANCH  11  14
ENDBRANCH   1  11
TORSDOF 6
ENDMDL
MODEL 6
REMARK VINA RESULT:    -3.417     12.839     14.010
REMARK INTER + INTRA:          -4.444
REMARK INTER:                  -4.379
REMARK INTRA:                  -0.065
REMARK UNBOUND:                -0.128
REMARK  Name = 8038
REMARK  6 active torsions:
REMARK  status: ('A' for Active; 'I' for Inactive)
REMARK    1  A    between atoms: O_1  and  C_4
REMARK    2  A    between atoms: O_1  and  C_7
REMARK    3  A    between atoms: C_3  and  C_4
REMARK    4  A    between atoms: C_3  and  C_5
REMARK    5  A    between atoms: C_3  and  C_6
REMARK    6  A    between atoms: C_7  and  C_8
REMARK                            x       y       z     vdW  Elec       q    Type
REMARK                         _______ _______ _______ _____ _____    ______ ____
ROOT
ATOM      1  C   UNL     1      -2.455   9.305 -10.223  0.00  0.00    +0.000 C 
ATOM      2  H   UNL     1      -3.299   9.743 -10.771  0.00  0.00    +0.000 HD
ENDROOT
BRANCH   1   3
ATOM      3  C   UNL     1      -2.771   9.416  -8.730  0.00  0.00    +0.000 C 
ATOM      4  H   UNL     1      -1.861   9.614  -8.154  0.00  0.00    +0.000 HD
ATOM      5  H   UNL     1      -3.217   8.491  -8.350  0.00  0.00    +0.000 HD
ATOM      6  H   UNL     1      -3.470  10.236  -8.534  0.00  0.00    +0.000 HD
ENDBRANCH   1   3
BRANCH   1   7
ATOM      7  C   UNL     1      -1.191  10.095 -10.558  0.00  0.00    +0.000 C 
ATOM      8  H   UNL     1      -1.346  11.167 -10.390  0.00  0.00    +0.000 HD
ATOM      9  H   UNL     1      -0.915   9.959 -11.609  0.00  0.00    +0.000 HD
ATOM     10  H   UNL     1      -0.346   9.775  -9.941  0.00  0.00    +0.000 HD
ENDBRANCH   1   7
BRANCH   1  11
ATOM     11  C   UNL     1      -2.300   7.843 -10.653  0.00  0.00    +0.000 C 
ATOM     12  H   UNL     1      -2.744   7.704 -11.647  0.00  0.00    +0.000 HD
ATOM     13  H   UNL     1      -1.239   7.573 -10.700  0.00  0.00    +0.000 HD
BRANCH  11  14
ATOM     14  O   UNL     1      -2.965   6.994  -9.727  0.00  0.00    +0.000 OA
BRANCH  14  16
ATOM     15  O   UNL     1      -4.735   6.652 -11.171  0.00  0.00    +0.000 OA
ATOM     16  C   UNL     1      -4.250   6.653 -10.048  0.00  0.00    +0.000 C 
BRANCH  16  17
ATOM     17  C   UNL     1      -5.001   6.272  -8.809  0.00  0.00    +0.000 C 
ATOM     18  H   UNL     1      -4.853   5.211  -8.596  0.00  0.00    +0.000 HD
ATOM     19  H   UNL     1      -6.064   6.494  -8.938  0.00  0.00    +0.000 HD
ATOM     20  H   UNL     1      -4.624   6.854  -7.963  0.00  0.00    +0.000 HD
ENDBRANCH  16  17
ENDBRANCH  14  16
ENDBRANCH  11  14
ENDBRANCH   1  11
TORSDOF 6
ENDMDL
MODEL 7
REMARK VINA RESULT:    -3.304     17.295     18.465
REMARK INTER + INTRA:          -4.301
REMARK INTER:                  -4.184
REMARK INTRA:                  -0.117
REMARK UNBOUND:                -0.128
REMARK  Name = 8038
REMARK  6 active torsions:
REMARK  status: ('A' for Active; 'I' for Inactive)
REMARK    1  A    between atoms: O_1  and  C_4
REMARK    2  A    between atoms: O_1  and  C_7
REMARK    3  A    between atoms: C_3  and  C_4
REMARK    4  A    between atoms: C_3  and  C_5
REMARK    5  A    between atoms: C_3  and  C_6
REMARK    6  A    between atoms: C_7  and  C_8
REMARK                            x       y       z     vdW  Elec       q    Type
REMARK                         _______ _______ _______ _____ _____    ______ ____
ROOT
ATOM      1  C   UNL     1       5.432  -1.110 -15.368  0.00  0.00    +0.000 C 
ATOM      2  H   UNL     1       6.277  -1.179 -14.672  0.00  0.00    +0.000 HD
ENDROOT
BRANCH   1   3
ATOM      3  C   UNL     1       4.590  -2.375 -15.193  0.00  0.00    +0.000 C 
ATOM      4  H   UNL     1       3.562  -2.122 -14.912  0.00  0.00    +0.000 HD
ATOM      5  H   UNL     1       5.003  -3.021 -14.411  0.00  0.00    +0.000 HD
ATOM      6  H   UNL     1       4.545  -2.953 -16.122  0.00  0.00    +0.000 HD
ENDBRANCH   1   3
BRANCH   1   7
ATOM      7  C   UNL     1       5.976  -1.028 -16.793  0.00  0.00    +0.000 C 
ATOM      8  H   UNL     1       5.682  -1.911 -17.373  0.00  0.00    +0.000 HD
ATOM      9  H   UNL     1       7.070  -0.981 -16.789  0.00  0.00    +0.000 HD
ATOM     10  H   UNL     1       5.599  -0.141 -17.313  0.00  0.00    +0.000 HD
ENDBRANCH   1   7
BRANCH   1  11
ATOM     11  C   UNL     1       4.626   0.148 -15.032  0.00  0.00    +0.000 C 
ATOM     12  H   UNL     1       5.310   0.960 -14.758  0.00  0.00    +0.000 HD
ATOM     13  H   UNL     1       4.035   0.463 -15.901  0.00  0.00    +0.000 HD
BRANCH  11  14
ATOM     14  O   UNL     1       3.756  -0.113 -13.938  0.00  0.00    +0.000 OA
BRANCH  14  16
ATOM     15  O   UNL     1       2.235   1.420 -14.759  0.00  0.00    +0.000 OA
ATOM     16  C   UNL     1       2.588   0.597 -13.924  0.00  0.00    +0.000 C 
BRANCH  16  17
ATOM     17  C   UNL     1       1.778   0.224 -12.719  0.00  0.00    +0.000 C 
ATOM     18  H   UNL     1       2.440   0.049 -11.868  0.00  0.00    +0.000 HD
ATOM     19  H   UNL     1       1.184  -0.667 -12.935  0.00  0.00    +0.000 HD
ATOM     20  H   UNL     1       1.099   1.044 -12.471  0.00  0.00    +0.000 HD
ENDBRANCH  16  17
ENDBRANCH  14  16
ENDBRANCH  11  14
ENDBRANCH   1  11
TORSDOF 6
ENDMDL
MODEL 8
REMARK VINA RESULT:    -3.269     29.581     30.486
REMARK INTER + INTRA:          -4.257
REMARK INTER:                  -4.019
REMARK INTRA:                  -0.238
REMARK UNBOUND:                -0.128
REMARK  Name = 8038
REMARK  6 active torsions:
REMARK  status: ('A' for Active; 'I' for Inactive)
REMARK    1  A    between atoms: O_1  and  C_4
REMARK    2  A    between atoms: O_1  and  C_7
REMARK    3  A    between atoms: C_3  and  C_4
REMARK    4  A    between atoms: C_3  and  C_5
REMARK    5  A    between atoms: C_3  and  C_6
REMARK    6  A    between atoms: C_7  and  C_8
REMARK                            x       y       z     vdW  Elec       q    Type
REMARK                         _______ _______ _______ _____ _____    ______ ____
ROOT
ATOM      1  C   UNL     1     -20.473  -1.903   6.681  0.00  0.00    +0.000 C 
ATOM      2  H   UNL     1     -19.480  -2.192   7.048  0.00  0.00    +0.000 HD
ENDROOT
BRANCH   1   3
ATOM      3  C   UNL     1     -20.808  -2.819   5.502  0.00  0.00    +0.000 C 
ATOM      4  H   UNL     1     -20.287  -2.492   4.595  0.00  0.00    +0.000 HD
ATOM      5  H   UNL     1     -21.883  -2.817   5.292  0.00  0.00    +0.000 HD
ATOM      6  H   UNL     1     -20.504  -3.851   5.703  0.00  0.00    +0.000 HD
ENDBRANCH   1   3
BRANCH   1   7
ATOM      7  C   UNL     1     -20.421  -0.447   6.223  0.00  0.00    +0.000 C 
ATOM      8  H   UNL     1     -21.301   0.103   6.576  0.00  0.00    +0.000 HD
ATOM      9  H   UNL     1     -20.404  -0.383   5.130  0.00  0.00    +0.000 HD
ATOM     10  H   UNL     1     -19.530   0.060   6.607  0.00  0.00    +0.000 HD
ENDBRANCH   1   7
BRANCH   1  11
ATOM     11  C   UNL     1     -21.481  -2.069   7.821  0.00  0.00    +0.000 C 
ATOM     12  H   UNL     1     -22.322  -2.686   7.481  0.00  0.00    +0.000 HD
ATOM     13  H   UNL     1     -21.006  -2.562   8.678  0.00  0.00    +0.000 HD
BRANCH  11  14
ATOM     14  O   UNL     1     -21.974  -0.796   8.220  0.00  0.00    +0.000 OA
BRANCH  14  16
ATOM     15  O   UNL     1     -23.704  -0.280   9.661  0.00  0.00    +0.000 OA
ATOM     16  C   UNL     1     -23.281  -0.762   8.619  0.00  0.00    +0.000 C 
BRANCH  16  17
ATOM     17  C   UNL     1     -24.148  -1.411   7.583  0.00  0.00    +0.000 C 
ATOM     18  H   UNL     1     -24.363  -0.700   6.781  0.00  0.00    +0.000 HD
ATOM     19  H   UNL     1     -25.074  -1.764   8.044  0.00  0.00    +0.000 HD
ATOM     20  H   UNL     1     -23.622  -2.270   7.156  0.00  0.00    +0.000 HD
ENDBRANCH  16  17
ENDBRANCH  14  16
ENDBRANCH  11  14
ENDBRANCH   1  11
TORSDOF 6
ENDMDL
MODEL 9
REMARK VINA RESULT:    -3.212     14.199     15.296
REMARK INTER + INTRA:          -4.184
REMARK INTER:                  -4.038
REMARK INTRA:                  -0.147
REMARK UNBOUND:                -0.128
REMARK  Name = 8038
REMARK  6 active torsions:
REMARK  status: ('A' for Active; 'I' for Inactive)
REMARK    1  A    between atoms: O_1  and  C_4
REMARK    2  A    between atoms: O_1  and  C_7
REMARK    3  A    between atoms: C_3  and  C_4
REMARK    4  A    between atoms: C_3  and  C_5
REMARK    5  A    between atoms: C_3  and  C_6
REMARK    6  A    between atoms: C_7  and  C_8
REMARK                            x       y       z     vdW  Elec       q    Type
REMARK                         _______ _______ _______ _____ _____    ______ ____
ROOT
ATOM      1  C   UNL     1      -3.112   7.321 -10.790  0.00  0.00    +0.000 C 
ATOM      2  H   UNL     1      -3.223   8.409 -10.711  0.00  0.00    +0.000 HD
ENDROOT
BRANCH   1   3
ATOM      3  C   UNL     1      -4.251   6.807 -11.672  0.00  0.00    +0.000 C 
ATOM      4  H   UNL     1      -4.090   5.758 -11.943  0.00  0.00    +0.000 HD
ATOM      5  H   UNL     1      -4.327   7.387 -12.599  0.00  0.00    +0.000 HD
ATOM      6  H   UNL     1      -5.213   6.870 -11.153  0.00  0.00    +0.000 HD
ENDBRANCH   1   3
BRANCH   1   7
ATOM      7  C   UNL     1      -3.210   6.715  -9.391  0.00  0.00    +0.000 C 
ATOM      8  H   UNL     1      -2.564   7.253  -8.688  0.00  0.00    +0.000 HD
ATOM      9  H   UNL     1      -2.895   5.667  -9.398  0.00  0.00    +0.000 HD
ATOM     10  H   UNL     1      -4.236   6.759  -9.009  0.00  0.00    +0.000 HD
ENDBRANCH   1   7
BRANCH   1  11
ATOM     11  C   UNL     1      -1.745   7.014 -11.409  0.00  0.00    +0.000 C 
ATOM     12  H   UNL     1      -1.071   7.864 -11.250  0.00  0.00    +0.000 HD
ATOM     13  H   UNL     1      -1.307   6.125 -10.939  0.00  0.00    +0.000 HD
BRANCH  11  14
ATOM     14  O   UNL     1      -1.886   6.791 -12.806  0.00  0.00    +0.000 OA
BRANCH  14  16
ATOM     15  O   UNL     1      -1.382   7.781 -14.831  0.00  0.00    +0.000 OA
ATOM     16  C   UNL     1      -1.244   7.683 -13.619  0.00  0.00    +0.000 C 
BRANCH  16  17
ATOM     17  C   UNL     1      -0.327   8.545 -12.807  0.00  0.00    +0.000 C 
ATOM     18  H   UNL     1      -0.689   9.576 -12.807  0.00  0.00    +0.000 HD
ATOM     19  H   UNL     1       0.687   8.493 -13.214  0.00  0.00    +0.000 HD
ATOM     20  H   UNL     1      -0.307   8.182 -11.775  0.00  0.00    +0.000 HD
ENDBRANCH  16  17
ENDBRANCH  14  16
ENDBRANCH  11  14
ENDBRANCH   1  11
TORSDOF 6
ENDMDL
MODEL 10
REMARK VINA RESULT:    -3.139     14.019     15.671
REMARK INTER + INTRA:          -4.092
REMARK INTER:                  -3.964
REMARK INTRA:                  -0.128
REMARK UNBOUND:                -0.128
REMARK  Name = 8038
REMARK  6 active torsions:
REMARK  status: ('A' for Active; 'I' for Inactive)
REMARK    1  A    between atoms: O_1  and  C_4
REMARK    2  A    between atoms: O_1  and  C_7
REMARK    3  A    between atoms: C_3  and  C_4
REMARK    4  A    between atoms: C_3  and  C_5
REMARK    5  A    between atoms: C_3  and  C_6
REMARK    6  A    between atoms: C_7  and  C_8
REMARK                            x       y       z     vdW  Elec       q    Type
REMARK                         _______ _______ _______ _____ _____    ______ ____
ROOT
ATOM      1  C   UNL     1      -8.137  12.216   5.372  0.00  0.00    +0.000 C 
ATOM      2  H   UNL     1      -7.638  13.188   5.480  0.00  0.00    +0.000 HD
ENDROOT
BRANCH   1   3
ATOM      3  C   UNL     1      -7.270  11.358   4.449  0.00  0.00    +0.000 C 
ATOM      4  H   UNL     1      -6.945  10.445   4.959  0.00  0.00    +0.000 HD
ATOM      5  H   UNL     1      -6.375  11.901   4.127  0.00  0.00    +0.000 HD
ATOM      6  H   UNL     1      -7.823  11.056   3.553  0.00  0.00    +0.000 HD
ENDBRANCH   1   3
BRANCH   1   7
ATOM      7  C   UNL     1      -9.515  12.438   4.751  0.00  0.00    +0.000 C 
ATOM      8  H   UNL     1      -9.983  11.482   4.492  0.00  0.00    +0.000 HD
ATOM      9  H   UNL     1      -9.436  13.030   3.833  0.00  0.00    +0.000 HD
ATOM     10  H   UNL     1     -10.182  12.966   5.440  0.00  0.00    +0.000 HD
ENDBRANCH   1   7
BRANCH   1  11
ATOM     11  C   UNL     1      -8.272  11.581   6.759  0.00  0.00    +0.000 C 
ATOM     12  H   UNL     1      -7.364  11.775   7.342  0.00  0.00    +0.000 HD
ATOM     13  H   UNL     1      -9.130  12.012   7.290  0.00  0.00    +0.000 HD
BRANCH  11  14
ATOM     14  O   UNL     1      -8.450  10.176   6.633  0.00  0.00    +0.000 OA
BRANCH  14  16
ATOM     15  O   UNL     1     -10.465   9.413   7.467  0.00  0.00    +0.000 OA
ATOM     16  C   UNL     1      -9.259   9.592   7.569  0.00  0.00    +0.000 C 
BRANCH  16  17
ATOM     17  C   UNL     1      -8.449   9.192   8.764  0.00  0.00    +0.000 C 
ATOM     18  H   UNL     1      -9.112   8.952   9.598  0.00  0.00    +0.000 HD
ATOM     19  H   UNL     1      -7.766  10.001   9.035  0.00  0.00    +0.000 HD
ATOM     20  H   UNL     1      -7.858   8.304   8.521  0.00  0.00    +0.000 HD
ENDBRANCH  16  17
ENDBRANCH  14  16
ENDBRANCH  11  14
ENDBRANCH   1  11
TORSDOF 6
ENDMDL
