MODEL 1
REMARK VINA RESULT:    -3.843      0.000      0.000
REMARK INTER + INTRA:          -4.660
REMARK INTER:                  -4.580
REMARK INTRA:                  -0.080
REMARK UNBOUND:                -0.031
REMARK  Name = 10430
REMARK  5 active torsions:
REMARK  status: ('A' for Active; 'I' for Inactive)
REMARK    1  A    between atoms: O_1  and  C_7
REMARK    2  A    between atoms: C_3  and  C_4
REMARK    3  A    between atoms: C_3  and  C_5
REMARK    4  A    between atoms: C_3  and  C_6
REMARK    5  A    between atoms: C_4  and  C_7
REMARK                            x       y       z     vdW  Elec       q    Type
REMARK                         _______ _______ _______ _____ _____    ______ ____
ROOT
ATOM      1  C   UNL     1      -3.416   7.487  -9.858  0.00  0.00    +0.000 C 
ATOM      2  H   UNL     1      -4.251   7.902 -10.436  0.00  0.00    +0.000 HD
ENDROOT
BRANCH   1   3
ATOM      3  C   UNL     1      -3.989   6.510  -8.829  0.00  0.00    +0.000 C 
ATOM      4  H   UNL     1      -4.925   6.061  -9.176  0.00  0.00    +0.000 HD
ATOM      5  H   UNL     1      -4.183   7.006  -7.872  0.00  0.00    +0.000 HD
ATOM      6  H   UNL     1      -3.288   5.689  -8.645  0.00  0.00    +0.000 HD
ENDBRANCH   1   3
BRANCH   1   7
ATOM      7  C   UNL     1      -2.496   6.739 -10.825  0.00  0.00    +0.000 C 
ATOM      8  H   UNL     1      -1.855   7.434 -11.380  0.00  0.00    +0.000 HD
ATOM      9  H   UNL     1      -1.850   6.038 -10.285  0.00  0.00    +0.000 HD
ATOM     10  H   UNL     1      -3.082   6.165 -11.550  0.00  0.00    +0.000 HD
ENDBRANCH   1   7
BRANCH   1  11
ATOM     11  C   UNL     1      -2.674   8.627  -9.144  0.00  0.00    +0.000 C 
ATOM     12  H   UNL     1      -1.805   8.244  -8.595  0.00  0.00    +0.000 HD
ATOM     13  H   UNL     1      -3.329   9.101  -8.402  0.00  0.00    +0.000 HD
BRANCH  11  15
ATOM     14  O   UNL     1      -1.037  10.061 -10.246  0.00  0.00    +0.000 OA
ATOM     15  C   UNL     1      -2.195   9.705 -10.088  0.00  0.00    +0.000 C 
BRANCH  15  16
ATOM     16  O   UNL     1      -3.242  10.218 -10.782  0.00  0.00    +0.000 OA
ATOM     17  H   UNL     1      -3.838   9.515 -11.117  0.00  0.00    +0.000 HD
ENDBRANCH  15  16
ENDBRANCH  11  15
ENDBRANCH   1  11
TORSDOF 5
ENDMDL
MODEL 2
REMARK VINA RESULT:    -3.795     25.608     26.798
REMARK INTER + INTRA:          -4.602
REMARK INTER:                  -4.551
REMARK INTRA:                  -0.052
REMARK UNBOUND:                -0.031
REMARK  Name = 10430
REMARK  5 active torsions:
REMARK  status: ('A' for Active; 'I' for Inactive)
REMARK    1  A    between atoms: O_1  and  C_7
REMARK    2  A    between atoms: C_3  and  C_4
REMARK    3  A    between atoms: C_3  and  C_5
REMARK    4  A    between atoms: C_3  and  C_6
REMARK    5  A    between atoms: C_4  and  C_7
REMARK                            x       y       z     vdW  Elec       q    Type
REMARK                         _______ _______ _______ _____ _____    ______ ____
ROOT
ATOM      1  C   UNL     1     -20.971  -0.831   5.653  0.00  0.00    +0.000 C 
ATOM      2  H   UNL     1     -22.046  -0.620   5.703  0.00  0.00    +0.000 HD
ENDROOT
BRANCH   1   3
ATOM      3  C   UNL     1     -20.781  -2.161   4.920  0.00  0.00    +0.000 C 
ATOM      4  H   UNL     1     -21.275  -2.985   5.445  0.00  0.00    +0.000 HD
ATOM      5  H   UNL     1     -19.719  -2.411   4.813  0.00  0.00    +0.000 HD
ATOM      6  H   UNL     1     -21.216  -2.113   3.915  0.00  0.00    +0.000 HD
ENDBRANCH   1   3
BRANCH   1   7
ATOM      7  C   UNL     1     -20.302   0.296   4.862  0.00  0.00    +0.000 C 
ATOM      8  H   UNL     1     -20.638   0.302   3.818  0.00  0.00    +0.000 HD
ATOM      9  H   UNL     1     -20.536   1.272   5.300  0.00  0.00    +0.000 HD
ATOM     10  H   UNL     1     -19.213   0.177   4.866  0.00  0.00    +0.000 HD
ENDBRANCH   1   7
BRANCH   1  11
ATOM     11  C   UNL     1     -20.404  -0.931   7.077  0.00  0.00    +0.000 C 
ATOM     12  H   UNL     1     -19.872  -0.011   7.352  0.00  0.00    +0.000 HD
ATOM     13  H   UNL     1     -19.672  -1.746   7.140  0.00  0.00    +0.000 HD
BRANCH  11  15
ATOM     14  O   UNL     1     -21.949  -2.271   8.407  0.00  0.00    +0.000 OA
ATOM     15  C   UNL     1     -21.466  -1.186   8.121  0.00  0.00    +0.000 C 
BRANCH  15  16
ATOM     16  O   UNL     1     -21.798  -0.026   8.743  0.00  0.00    +0.000 OA
ATOM     17  H   UNL     1     -22.194   0.621   8.121  0.00  0.00    +0.000 HD
ENDBRANCH  15  16
ENDBRANCH  11  15
ENDBRANCH   1  11
TORSDOF 5
ENDMDL
MODEL 3
REMARK VINA RESULT:    -3.636      2.247      3.053
REMARK INTER + INTRA:          -4.411
REMARK INTER:                  -4.349
REMARK INTRA:                  -0.062
REMARK UNBOUND:                -0.031
REMARK  Name = 10430
REMARK  5 active torsions:
REMARK  status: ('A' for Active; 'I' for Inactive)
REMARK    1  A    between atoms: O_1  and  C_7
REMARK    2  A    between atoms: C_3  and  C_4
REMARK    3  A    between atoms: C_3  and  C_5
REMARK    4  A    between atoms: C_3  and  C_6
REMARK    5  A    between atoms: C_4  and  C_7
REMARK                            x       y       z     vdW  Elec       q    Type
REMARK                         _______ _______ _______ _____ _____    ______ ____
ROOT
ATOM      1  C   UNL     1      -2.816   7.295  -9.847  0.00  0.00    +0.000 C 
ATOM      2  H   UNL     1      -1.813   6.888  -9.674  0.00  0.00    +0.000 HD
ENDROOT
BRANCH   1   3
ATOM      3  C   UNL     1      -3.779   6.622  -8.867  0.00  0.00    +0.000 C 
ATOM      4  H   UNL     1      -4.791   7.030  -8.951  0.00  0.00    +0.000 HD
ATOM      5  H   UNL     1      -3.445   6.745  -7.831  0.00  0.00    +0.000 HD
ATOM      6  H   UNL     1      -3.848   5.547  -9.072  0.00  0.00    +0.000 HD
ENDBRANCH   1   3
BRANCH   1   7
ATOM      7  C   UNL     1      -2.772   8.801  -9.577  0.00  0.00    +0.000 C 
ATOM      8  H   UNL     1      -3.780   9.231  -9.557  0.00  0.00    +0.000 HD
ATOM      9  H   UNL     1      -2.293   9.011  -8.614  0.00  0.00    +0.000 HD
ATOM     10  H   UNL     1      -2.199   9.316 -10.356  0.00  0.00    +0.000 HD
ENDBRANCH   1   7
BRANCH   1  11
ATOM     11  C   UNL     1      -3.244   6.996 -11.293  0.00  0.00    +0.000 C 
ATOM     12  H   UNL     1      -3.943   7.758 -11.659  0.00  0.00    +0.000 HD
ATOM     13  H   UNL     1      -3.772   6.036 -11.343  0.00  0.00    +0.000 HD
BRANCH  11  15
ATOM     14  O   UNL     1      -2.117   7.174 -13.450  0.00  0.00    +0.000 OA
ATOM     15  C   UNL     1      -2.080   6.929 -12.253  0.00  0.00    +0.000 C 
BRANCH  15  16
ATOM     16  O   UNL     1      -0.946   6.584 -11.590  0.00  0.00    +0.000 OA
ATOM     17  H   UNL     1      -1.116   5.902 -10.907  0.00  0.00    +0.000 HD
ENDBRANCH  15  16
ENDBRANCH  11  15
ENDBRANCH   1  11
TORSDOF 5
ENDMDL
MODEL 4
REMARK VINA RESULT:    -3.561      7.668      8.277
REMARK INTER + INTRA:          -4.321
REMARK INTER:                  -4.246
REMARK INTRA:                  -0.075
REMARK UNBOUND:                -0.031
REMARK  Name = 10430
REMARK  5 active torsions:
REMARK  status: ('A' for Active; 'I' for Inactive)
REMARK    1  A    between atoms: O_1  and  C_7
REMARK    2  A    between atoms: C_3  and  C_4
REMARK    3  A    between atoms: C_3  and  C_5
REMARK    4  A    between atoms: C_3  and  C_6
REMARK    5  A    between atoms: C_4  and  C_7
REMARK                            x       y       z     vdW  Elec       q    Type
REMARK                         _______ _______ _______ _____ _____    ______ ____
ROOT
ATOM      1  C   UNL     1      -8.413   4.404  -5.634  0.00  0.00    +0.000 C 
ATOM      2  H   UNL     1      -7.476   4.862  -5.293  0.00  0.00    +0.000 HD
ENDROOT
BRANCH   1   3
ATOM      3  C   UNL     1      -8.155   3.745  -6.990  0.00  0.00    +0.000 C 
ATOM      4  H   UNL     1      -7.335   3.022  -6.938  0.00  0.00    +0.000 HD
ATOM      5  H   UNL     1      -7.907   4.489  -7.755  0.00  0.00    +0.000 HD
ATOM      6  H   UNL     1      -9.044   3.200  -7.328  0.00  0.00    +0.000 HD
ENDBRANCH   1   3
BRANCH   1   7
ATOM      7  C   UNL     1      -8.820   3.341  -4.611  0.00  0.00    +0.000 C 
ATOM      8  H   UNL     1      -7.952   2.767  -4.267  0.00  0.00    +0.000 HD
ATOM      9  H   UNL     1      -9.292   3.802  -3.735  0.00  0.00    +0.000 HD
ATOM     10  H   UNL     1      -9.539   2.640  -5.048  0.00  0.00    +0.000 HD
ENDBRANCH   1   7
BRANCH   1  11
ATOM     11  C   UNL     1      -9.490   5.491  -5.773  0.00  0.00    +0.000 C 
ATOM     12  H   UNL     1     -10.344   5.283  -5.117  0.00  0.00    +0.000 HD
ATOM     13  H   UNL     1      -9.880   5.511  -6.799  0.00  0.00    +0.000 HD
BRANCH  11  15
ATOM     14  O   UNL     1      -9.581   7.925  -5.626  0.00  0.00    +0.000 OA
ATOM     15  C   UNL     1      -8.979   6.876  -5.451  0.00  0.00    +0.000 C 
BRANCH  15  16
ATOM     16  O   UNL     1      -7.744   6.801  -4.894  0.00  0.00    +0.000 OA
ATOM     17  H   UNL     1      -7.084   6.431  -5.518  0.00  0.00    +0.000 HD
ENDBRANCH  15  16
ENDBRANCH  11  15
ENDBRANCH   1  11
TORSDOF 5
ENDMDL
MODEL 5
REMARK VINA RESULT:    -3.536     25.852     26.493
REMARK INTER + INTRA:          -4.290
REMARK INTER:                  -4.224
REMARK INTRA:                  -0.066
REMARK UNBOUND:                -0.031
REMARK  Name = 10430
REMARK  5 active torsions:
REMARK  status: ('A' for Active; 'I' for Inactive)
REMARK    1  A    between atoms: O_1  and  C_7
REMARK    2  A    between atoms: C_3  and  C_4
REMARK    3  A    between atoms: C_3  and  C_5
REMARK    4  A    between atoms: C_3  and  C_6
REMARK    5  A    between atoms: C_4  and  C_7
REMARK                            x       y       z     vdW  Elec       q    Type
REMARK                         _______ _______ _______ _____ _____    ______ ____
ROOT
ATOM      1  C   UNL     1     -20.785  -3.682   5.508  0.00  0.00    +0.000 C 
ATOM      2  H   UNL     1     -20.503  -4.251   6.403  0.00  0.00    +0.000 HD
ENDROOT
BRANCH   1   3
ATOM      3  C   UNL     1     -22.231  -4.037   5.156  0.00  0.00    +0.000 C 
ATOM      4  H   UNL     1     -22.350  -4.227   4.085  0.00  0.00    +0.000 HD
ATOM      5  H   UNL     1     -22.920  -3.233   5.439  0.00  0.00    +0.000 HD
ATOM      6  H   UNL     1     -22.544  -4.946   5.681  0.00  0.00    +0.000 HD
ENDBRANCH   1   3
BRANCH   1   7
ATOM      7  C   UNL     1     -20.684  -2.192   5.841  0.00  0.00    +0.000 C 
ATOM      8  H   UNL     1     -21.357  -1.922   6.663  0.00  0.00    +0.000 HD
ATOM      9  H   UNL     1     -19.663  -1.926   6.136  0.00  0.00    +0.000 HD
ATOM     10  H   UNL     1     -20.950  -1.583   4.971  0.00  0.00    +0.000 HD
ENDBRANCH   1   7
BRANCH   1  11
ATOM     11  C   UNL     1     -19.853  -4.064   4.348  0.00  0.00    +0.000 C 
ATOM     12  H   UNL     1     -19.033  -3.342   4.252  0.00  0.00    +0.000 HD
ATOM     13  H   UNL     1     -20.400  -4.044   3.398  0.00  0.00    +0.000 HD
BRANCH  11  15
ATOM     14  O   UNL     1     -19.313  -6.350   3.688  0.00  0.00    +0.000 OA
ATOM     15  C   UNL     1     -19.249  -5.440   4.501  0.00  0.00    +0.000 C 
BRANCH  15  16
ATOM     16  O   UNL     1     -18.576  -5.527   5.677  0.00  0.00    +0.000 OA
ATOM     17  H   UNL     1     -17.998  -6.318   5.709  0.00  0.00    +0.000 HD
ENDBRANCH  15  16
ENDBRANCH  11  15
ENDBRANCH   1  11
TORSDOF 5
ENDMDL
MODEL 6
REMARK VINA RESULT:    -3.468     32.542     33.489
REMARK INTER + INTRA:          -4.209
REMARK INTER:                  -4.150
REMARK INTRA:                  -0.059
REMARK UNBOUND:                -0.031
REMARK  Name = 10430
REMARK  5 active torsions:
REMARK  status: ('A' for Active; 'I' for Inactive)
REMARK    1  A    between atoms: O_1  and  C_7
REMARK    2  A    between atoms: C_3  and  C_4
REMARK    3  A    between atoms: C_3  and  C_5
REMARK    4  A    between atoms: C_3  and  C_6
REMARK    5  A    between atoms: C_4  and  C_7
REMARK                            x       y       z     vdW  Elec       q    Type
REMARK                         _______ _______ _______ _____ _____    ______ ____
ROOT
ATOM      1  C   UNL     1     -10.090 -12.190  15.963  0.00  0.00    +0.000 C 
ATOM      2  H   UNL     1     -10.007 -12.296  14.875  0.00  0.00    +0.000 HD
ENDROOT
BRANCH   1   3
ATOM      3  C   UNL     1     -10.954 -10.963  16.258  0.00  0.00    +0.000 C 
ATOM      4  H   UNL     1     -11.890 -11.238  16.754  0.00  0.00    +0.000 HD
ATOM      5  H   UNL     1     -11.201 -10.419  15.339  0.00  0.00    +0.000 HD
ATOM      6  H   UNL     1     -10.428 -10.272  16.926  0.00  0.00    +0.000 HD
ENDBRANCH   1   3
BRANCH   1   7
ATOM      7  C   UNL     1     -10.769 -13.446  16.513  0.00  0.00    +0.000 C 
ATOM      8  H   UNL     1     -11.852 -13.304  16.605  0.00  0.00    +0.000 HD
ATOM      9  H   UNL     1     -10.594 -14.305  15.855  0.00  0.00    +0.000 HD
ATOM     10  H   UNL     1     -10.375 -13.696  17.504  0.00  0.00    +0.000 HD
ENDBRANCH   1   7
BRANCH   1  11
ATOM     11  C   UNL     1      -8.688 -12.001  16.563  0.00  0.00    +0.000 C 
ATOM     12  H   UNL     1      -8.249 -12.967  16.843  0.00  0.00    +0.000 HD
ATOM     13  H   UNL     1      -8.745 -11.405  17.483  0.00  0.00    +0.000 HD
BRANCH  11  15
ATOM     14  O   UNL     1      -7.662 -11.465  14.415  0.00  0.00    +0.000 OA
ATOM     15  C   UNL     1      -7.730 -11.306  15.625  0.00  0.00    +0.000 C 
BRANCH  15  16
ATOM     16  O   UNL     1      -6.953 -10.431  16.313  0.00  0.00    +0.000 OA
ATOM     17  H   UNL     1      -6.312  -9.974  15.729  0.00  0.00    +0.000 HD
ENDBRANCH  15  16
ENDBRANCH  11  15
ENDBRANCH   1  11
TORSDOF 5
ENDMDL
MODEL 7
REMARK VINA RESULT:    -3.458      1.673      2.213
REMARK INTER + INTRA:          -4.197
REMARK INTER:                  -4.166
REMARK INTRA:                  -0.031
REMARK UNBOUND:                -0.031
REMARK  Name = 10430
REMARK  5 active torsions:
REMARK  status: ('A' for Active; 'I' for Inactive)
REMARK    1  A    between atoms: O_1  and  C_7
REMARK    2  A    between atoms: C_3  and  C_4
REMARK    3  A    between atoms: C_3  and  C_5
REMARK    4  A    between atoms: C_3  and  C_6
REMARK    5  A    between atoms: C_4  and  C_7
REMARK                            x       y       z     vdW  Elec       q    Type
REMARK                         _______ _______ _______ _____ _____    ______ ____
ROOT
ATOM      1  C   UNL     1      -3.023   7.452 -11.066  0.00  0.00    +0.000 C 
ATOM      2  H   UNL     1      -3.008   8.523 -11.301  0.00  0.00    +0.000 HD
ENDROOT
BRANCH   1   3
ATOM      3  C   UNL     1      -4.304   6.854 -11.652  0.00  0.00    +0.000 C 
ATOM      4  H   UNL     1      -4.947   7.626 -12.087  0.00  0.00    +0.000 HD
ATOM      5  H   UNL     1      -4.880   6.319 -10.890  0.00  0.00    +0.000 HD
ATOM      6  H   UNL     1      -4.066   6.145 -12.453  0.00  0.00    +0.000 HD
ENDBRANCH   1   3
BRANCH   1   7
ATOM      7  C   UNL     1      -1.802   6.804 -11.722  0.00  0.00    +0.000 C 
ATOM      8  H   UNL     1      -1.186   6.279 -10.983  0.00  0.00    +0.000 HD
ATOM      9  H   UNL     1      -2.107   6.081 -12.487  0.00  0.00    +0.000 HD
ATOM     10  H   UNL     1      -1.177   7.562 -12.207  0.00  0.00    +0.000 HD
ENDBRANCH   1   7
BRANCH   1  11
ATOM     11  C   UNL     1      -3.007   7.266  -9.541  0.00  0.00    +0.000 C 
ATOM     12  H   UNL     1      -2.197   6.590  -9.238  0.00  0.00    +0.000 HD
ATOM     13  H   UNL     1      -3.943   6.803  -9.204  0.00  0.00    +0.000 HD
BRANCH  11  15
ATOM     14  O   UNL     1      -3.409   8.875  -7.752  0.00  0.00    +0.000 OA
ATOM     15  C   UNL     1      -2.839   8.564  -8.787  0.00  0.00    +0.000 C 
BRANCH  15  16
ATOM     16  O   UNL     1      -1.921   9.349  -9.407  0.00  0.00    +0.000 OA
ATOM     17  H   UNL     1      -1.059   8.894  -9.506  0.00  0.00    +0.000 HD
ENDBRANCH  15  16
ENDBRANCH  11  15
ENDBRANCH   1  11
TORSDOF 5
ENDMDL
MODEL 8
REMARK VINA RESULT:    -3.438      2.331      3.667
REMARK INTER + INTRA:          -4.172
REMARK INTER:                  -4.217
REMARK INTRA:                   0.045
REMARK UNBOUND:                -0.031
REMARK  Name = 10430
REMARK  5 active torsions:
REMARK  status: ('A' for Active; 'I' for Inactive)
REMARK    1  A    between atoms: O_1  and  C_7
REMARK    2  A    between atoms: C_3  and  C_4
REMARK    3  A    between atoms: C_3  and  C_5
REMARK    4  A    between atoms: C_3  and  C_6
REMARK    5  A    between atoms: C_4  and  C_7
REMARK                            x       y       z     vdW  Elec       q    Type
REMARK                         _______ _______ _______ _____ _____    ______ ____
ROOT
ATOM      1  C   UNL     1      -2.514   9.258 -10.330  0.00  0.00    +0.000 C 
ATOM      2  H   UNL     1      -3.322   9.616 -10.980  0.00  0.00    +0.000 HD
ENDROOT
BRANCH   1   3
ATOM      3  C   UNL     1      -1.232  10.001 -10.712  0.00  0.00    +0.000 C 
ATOM      4  H   UNL     1      -1.448  10.995 -11.116  0.00  0.00    +0.000 HD
ATOM      5  H   UNL     1      -0.656   9.445 -11.459  0.00  0.00    +0.000 HD
ATOM      6  H   UNL     1      -0.593  10.143  -9.833  0.00  0.00    +0.000 HD
ENDBRANCH   1   3
BRANCH   1   7
ATOM      7  C   UNL     1      -2.889   9.584  -8.882  0.00  0.00    +0.000 C 
ATOM      8  H   UNL     1      -3.041   8.670  -8.296  0.00  0.00    +0.000 HD
ATOM      9  H   UNL     1      -2.102  10.172  -8.398  0.00  0.00    +0.000 HD
ATOM     10  H   UNL     1      -3.815  10.167  -8.846  0.00  0.00    +0.000 HD
ENDBRANCH   1   7
BRANCH   1  11
ATOM     11  C   UNL     1      -2.326   7.747 -10.535  0.00  0.00    +0.000 C 
ATOM     12  H   UNL     1      -1.356   7.416 -10.143  0.00  0.00    +0.000 HD
ATOM     13  H   UNL     1      -2.331   7.505 -11.605  0.00  0.00    +0.000 HD
BRANCH  11  15
ATOM     14  O   UNL     1      -4.541   6.752 -10.289  0.00  0.00    +0.000 OA
ATOM     15  C   UNL     1      -3.404   6.921  -9.874  0.00  0.00    +0.000 C 
BRANCH  15  16
ATOM     16  O   UNL     1      -2.923   6.344  -8.742  0.00  0.00    +0.000 OA
ATOM     17  H   UNL     1      -2.025   5.973  -8.875  0.00  0.00    +0.000 HD
ENDBRANCH  15  16
ENDBRANCH  11  15
ENDBRANCH   1  11
TORSDOF 5
ENDMDL
MODEL 9
REMARK VINA RESULT:    -3.413     31.565     32.762
REMARK INTER + INTRA:          -4.143
REMARK INTER:                  -4.091
REMARK INTRA:                  -0.052
REMARK UNBOUND:                -0.031
REMARK  Name = 10430
REMARK  5 active torsions:
REMARK  status: ('A' for Active; 'I' for Inactive)
REMARK    1  A    between atoms: O_1  and  C_7
REMARK    2  A    between atoms: C_3  and  C_4
REMARK    3  A    between atoms: C_3  and  C_5
REMARK    4  A    between atoms: C_3  and  C_6
REMARK    5  A    between atoms: C_4  and  C_7
REMARK                            x       y       z     vdW  Elec       q    Type
REMARK                         _______ _______ _______ _____ _____    ______ ____
ROOT
ATOM      1  C   UNL     1      -9.860 -12.119  15.908  0.00  0.00    +0.000 C 
ATOM      2  H   UNL     1      -9.539 -12.592  14.972  0.00  0.00    +0.000 HD
ENDROOT
BRANCH   1   3
ATOM      3  C   UNL     1     -11.199 -12.736  16.318  0.00  0.00    +0.000 C 
ATOM      4  H   UNL     1     -11.714 -12.124  17.065  0.00  0.00    +0.000 HD
ATOM      5  H   UNL     1     -11.066 -13.742  16.731  0.00  0.00    +0.000 HD
ATOM      6  H   UNL     1     -11.867 -12.815  15.452  0.00  0.00    +0.000 HD
ENDBRANCH   1   3
BRANCH   1   7
ATOM      7  C   UNL     1      -8.806 -12.415  16.977  0.00  0.00    +0.000 C 
ATOM      8  H   UNL     1      -9.089 -13.282  17.585  0.00  0.00    +0.000 HD
ATOM      9  H   UNL     1      -7.833 -12.624  16.518  0.00  0.00    +0.000 HD
ATOM     10  H   UNL     1      -8.684 -11.557  17.647  0.00  0.00    +0.000 HD
ENDBRANCH   1   7
BRANCH   1  11
ATOM     11  C   UNL     1     -10.025 -10.608  15.685  0.00  0.00    +0.000 C 
ATOM     12  H   UNL     1      -9.782 -10.049  16.597  0.00  0.00    +0.000 HD
ATOM     13  H   UNL     1     -11.068 -10.370  15.441  0.00  0.00    +0.000 HD
BRANCH  11  15
ATOM     14  O   UNL     1      -8.509 -10.745  13.778  0.00  0.00    +0.000 OA
ATOM     15  C   UNL     1      -9.160 -10.076  14.566  0.00  0.00    +0.000 C 
BRANCH  15  16
ATOM     16  O   UNL     1      -9.227  -8.721  14.527  0.00  0.00    +0.000 OA
ATOM     17  H   UNL     1      -9.756  -8.404  13.764  0.00  0.00    +0.000 HD
ENDBRANCH  15  16
ENDBRANCH  11  15
ENDBRANCH   1  11
TORSDOF 5
ENDMDL
MODEL 10
REMARK VINA RESULT:    -3.348     25.398     26.394
REMARK INTER + INTRA:          -4.064
REMARK INTER:                  -4.004
REMARK INTRA:                  -0.061
REMARK UNBOUND:                -0.031
REMARK  Name = 10430
REMARK  5 active torsions:
REMARK  status: ('A' for Active; 'I' for Inactive)
REMARK    1  A    between atoms: O_1  and  C_7
REMARK    2  A    between atoms: C_3  and  C_4
REMARK    3  A    between atoms: C_3  and  C_5
REMARK    4  A    between atoms: C_3  and  C_6
REMARK    5  A    between atoms: C_4  and  C_7
REMARK                            x       y       z     vdW  Elec       q    Type
REMARK                         _______ _______ _______ _____ _____    ______ ____
ROOT
ATOM      1  C   UNL     1     -20.510  -1.633   6.479  0.00  0.00    +0.000 C 
ATOM      2  H   UNL     1     -19.482  -1.968   6.669  0.00  0.00    +0.000 HD
ENDROOT
BRANCH   1   3
ATOM      3  C   UNL     1     -21.160  -1.308   7.825  0.00  0.00    +0.000 C 
ATOM      4  H   UNL     1     -20.453  -0.831   8.510  0.00  0.00    +0.000 HD
ATOM      5  H   UNL     1     -21.550  -2.211   8.309  0.00  0.00    +0.000 HD
ATOM      6  H   UNL     1     -21.996  -0.613   7.691  0.00  0.00    +0.000 HD
ENDBRANCH   1   3
BRANCH   1   7
ATOM      7  C   UNL     1     -20.446  -0.371   5.616  0.00  0.00    +0.000 C 
ATOM      8  H   UNL     1     -21.442  -0.081   5.263  0.00  0.00    +0.000 HD
ATOM      9  H   UNL     1     -20.028   0.469   6.183  0.00  0.00    +0.000 HD
ATOM     10  H   UNL     1     -19.810  -0.533   4.740  0.00  0.00    +0.000 HD
ENDBRANCH   1   7
BRANCH   1  11
ATOM     11  C   UNL     1     -21.289  -2.755   5.776  0.00  0.00    +0.000 C 
ATOM     12  H   UNL     1     -22.034  -2.341   5.086  0.00  0.00    +0.000 HD
ATOM     13  H   UNL     1     -21.841  -3.354   6.511  0.00  0.00    +0.000 HD
BRANCH  11  15
ATOM     14  O   UNL     1     -20.315  -3.762   3.778  0.00  0.00    +0.000 OA
ATOM     15  C   UNL     1     -20.400  -3.695   4.995  0.00  0.00    +0.000 C 
BRANCH  15  16
ATOM     16  O   UNL     1     -19.662  -4.454   5.844  0.00  0.00    +0.000 OA
ATOM     17  H   UNL     1     -19.544  -4.019   6.715  0.00  0.00    +0.000 HD
ENDBRANCH  15  16
ENDBRANCH  11  15
ENDBRANCH   1  11
TORSDOF 5
ENDMDL
