MODEL 1
REMARK VINA RESULT:    -5.433      0.000      0.000
REMARK INTER + INTRA:          -6.222
REMARK INTER:                  -6.067
REMARK INTRA:                  -0.155
REMARK UNBOUND:                -0.154
REMARK  Name = 22311
REMARK  3 active torsions:
REMARK  status: ('A' for Active; 'I' for Inactive)
REMARK    1  A    between atoms: C_1  and  C_7
REMARK    2  A    between atoms: C_5  and  C_8
REMARK    3  A    between atoms: C_7  and  C_9
REMARK                            x       y       z     vdW  Elec       q    Type
REMARK                         _______ _______ _______ _____ _____    ______ ____
ROOT
ATOM      1  C   UNL     1      -2.527   8.506 -10.438  0.00  0.00    +0.000 C 
ATOM      2  C   UNL     1      -1.484   9.609 -10.273  0.00  0.00    +0.000 C 
ATOM      3  C   UNL     1      -1.924   7.285 -11.140  0.00  0.00    +0.000 C 
ATOM      4  C   UNL     1      -0.920  10.044 -11.628  0.00  0.00    +0.000 C 
ATOM      5  C   UNL     1      -0.606   8.890 -12.548  0.00  0.00    +0.000 C 
ATOM      6  C   UNL     1      -1.053   7.646 -12.307  0.00  0.00    +0.000 C 
ATOM      7  H   UNL     1      -3.342   8.897 -11.063  0.00  0.00    +0.000 HD
ATOM      8  H   UNL     1      -0.645   9.272  -9.648  0.00  0.00    +0.000 HD
ATOM      9  H   UNL     1      -1.917  10.483  -9.768  0.00  0.00    +0.000 HD
ATOM     10  H   UNL     1      -2.739   6.642 -11.496  0.00  0.00    +0.000 HD
ATOM     11  H   UNL     1      -1.316   6.668 -10.467  0.00  0.00    +0.000 HD
ATOM     12  H   UNL     1      -0.015  10.638 -11.452  0.00  0.00    +0.000 HD
ATOM     13  H   UNL     1      -1.642  10.700 -12.129  0.00  0.00    +0.000 HD
ATOM     14  H   UNL     1      -0.791   6.837 -12.984  0.00  0.00    +0.000 HD
ENDROOT
BRANCH   1  15
ATOM     15  C   UNL     1      -3.062   8.116  -9.095  0.00  0.00    +0.000 C 
ATOM     16  C   UNL     1      -3.089   8.975  -8.065  0.00  0.00    +0.000 C 
ATOM     17  H   UNL     1      -3.480   8.675  -7.099  0.00  0.00    +0.000 HD
ATOM     18  H   UNL     1      -2.730   9.995  -8.148  0.00  0.00    +0.000 HD
BRANCH  15  19
ATOM     19  C   UNL     1      -3.565   6.708  -8.966  0.00  0.00    +0.000 C 
ATOM     20  H   UNL     1      -3.949   6.532  -7.956  0.00  0.00    +0.000 HD
ATOM     21  H   UNL     1      -4.372   6.527  -9.685  0.00  0.00    +0.000 HD
ATOM     22  H   UNL     1      -2.778   5.970  -9.157  0.00  0.00    +0.000 HD
ENDBRANCH  15  19
ENDBRANCH   1  15
BRANCH   5  23
ATOM     23  C   UNL     1       0.231   9.214 -13.750  0.00  0.00    +0.000 C 
ATOM     24  H   UNL     1      -0.408   9.495 -14.593  0.00  0.00    +0.000 HD
ATOM     25  H   UNL     1       0.845   8.364 -14.066  0.00  0.00    +0.000 HD
ATOM     26  H   UNL     1       0.905  10.048 -13.530  0.00  0.00    +0.000 HD
ENDBRANCH   5  23
TORSDOF 3
ENDMDL
MODEL 2
REMARK VINA RESULT:    -5.427     12.866     13.710
REMARK INTER + INTRA:          -6.216
REMARK INTER:                  -6.060
REMARK INTRA:                  -0.156
REMARK UNBOUND:                -0.154
REMARK  Name = 22311
REMARK  3 active torsions:
REMARK  status: ('A' for Active; 'I' for Inactive)
REMARK    1  A    between atoms: C_1  and  C_7
REMARK    2  A    between atoms: C_5  and  C_8
REMARK    3  A    between atoms: C_7  and  C_9
REMARK                            x       y       z     vdW  Elec       q    Type
REMARK                         _______ _______ _______ _____ _____    ______ ____
ROOT
ATOM      1  C   UNL     1       5.346   9.963  -0.011  0.00  0.00    +0.000 C 
ATOM      2  C   UNL     1       6.079  11.222  -0.470  0.00  0.00    +0.000 C 
ATOM      3  C   UNL     1       6.240   9.108   0.893  0.00  0.00    +0.000 C 
ATOM      4  C   UNL     1       7.360  10.868  -1.230  0.00  0.00    +0.000 C 
ATOM      5  C   UNL     1       8.160   9.765  -0.583  0.00  0.00    +0.000 C 
ATOM      6  C   UNL     1       7.647   8.988   0.386  0.00  0.00    +0.000 C 
ATOM      7  H   UNL     1       5.089   9.374  -0.902  0.00  0.00    +0.000 HD
ATOM      8  H   UNL     1       6.356  11.854   0.386  0.00  0.00    +0.000 HD
ATOM      9  H   UNL     1       5.437  11.835  -1.115  0.00  0.00    +0.000 HD
ATOM     10  H   UNL     1       5.807   8.103   0.970  0.00  0.00    +0.000 HD
ATOM     11  H   UNL     1       6.301   9.497   1.916  0.00  0.00    +0.000 HD
ATOM     12  H   UNL     1       7.974  11.773  -1.315  0.00  0.00    +0.000 HD
ATOM     13  H   UNL     1       7.103  10.557  -2.250  0.00  0.00    +0.000 HD
ATOM     14  H   UNL     1       8.261   8.215   0.841  0.00  0.00    +0.000 HD
ENDROOT
BRANCH   1  15
ATOM     15  C   UNL     1       4.096  10.349   0.718  0.00  0.00    +0.000 C 
ATOM     16  C   UNL     1       3.588   9.596   1.705  0.00  0.00    +0.000 C 
ATOM     17  H   UNL     1       2.681   9.892   2.221  0.00  0.00    +0.000 HD
ATOM     18  H   UNL     1       4.053   8.672   2.030  0.00  0.00    +0.000 HD
BRANCH  15  19
ATOM     19  C   UNL     1       3.443  11.628   0.280  0.00  0.00    +0.000 C 
ATOM     20  H   UNL     1       3.947  12.487   0.734  0.00  0.00    +0.000 HD
ATOM     21  H   UNL     1       3.495  11.726  -0.810  0.00  0.00    +0.000 HD
ATOM     22  H   UNL     1       2.387  11.671   0.567  0.00  0.00    +0.000 HD
ENDBRANCH  15  19
ENDBRANCH   1  15
BRANCH   5  23
ATOM     23  C   UNL     1       9.562   9.584  -1.086  0.00  0.00    +0.000 C 
ATOM     24  H   UNL     1       9.853   8.530  -1.028  0.00  0.00    +0.000 HD
ATOM     25  H   UNL     1      10.287  10.163  -0.503  0.00  0.00    +0.000 HD
ATOM     26  H   UNL     1       9.637   9.909  -2.129  0.00  0.00    +0.000 HD
ENDBRANCH   5  23
TORSDOF 3
ENDMDL
MODEL 3
REMARK VINA RESULT:    -5.425     12.581     14.528
REMARK INTER + INTRA:          -6.214
REMARK INTER:                  -6.063
REMARK INTRA:                  -0.151
REMARK UNBOUND:                -0.154
REMARK  Name = 22311
REMARK  3 active torsions:
REMARK  status: ('A' for Active; 'I' for Inactive)
REMARK    1  A    between atoms: C_1  and  C_7
REMARK    2  A    between atoms: C_5  and  C_8
REMARK    3  A    between atoms: C_7  and  C_9
REMARK                            x       y       z     vdW  Elec       q    Type
REMARK                         _______ _______ _______ _____ _____    ______ ____
ROOT
ATOM      1  C   UNL     1       4.728   9.581   0.573  0.00  0.00    +0.000 C 
ATOM      2  C   UNL     1       6.135   9.289   1.091  0.00  0.00    +0.000 C 
ATOM      3  C   UNL     1       3.733   9.699   1.731  0.00  0.00    +0.000 C 
ATOM      4  C   UNL     1       6.166   7.994   1.906  0.00  0.00    +0.000 C 
ATOM      5  C   UNL     1       5.004   7.853   2.859  0.00  0.00    +0.000 C 
ATOM      6  C   UNL     1       3.918   8.641   2.778  0.00  0.00    +0.000 C 
ATOM      7  H   UNL     1       4.418   8.742  -0.066  0.00  0.00    +0.000 HD
ATOM      8  H   UNL     1       6.497  10.103   1.734  0.00  0.00    +0.000 HD
ATOM      9  H   UNL     1       6.847   9.207   0.260  0.00  0.00    +0.000 HD
ATOM     10  H   UNL     1       2.713   9.622   1.331  0.00  0.00    +0.000 HD
ATOM     11  H   UNL     1       3.791  10.668   2.242  0.00  0.00    +0.000 HD
ATOM     12  H   UNL     1       7.111   7.956   2.461  0.00  0.00    +0.000 HD
ATOM     13  H   UNL     1       6.159   7.135   1.223  0.00  0.00    +0.000 HD
ATOM     14  H   UNL     1       3.110   8.522   3.495  0.00  0.00    +0.000 HD
ENDROOT
BRANCH   1  15
ATOM     15  C   UNL     1       4.741  10.847  -0.227  0.00  0.00    +0.000 C 
ATOM     16  C   UNL     1       3.723  11.191  -1.030  0.00  0.00    +0.000 C 
ATOM     17  H   UNL     1       3.750  12.112  -1.602  0.00  0.00    +0.000 HD
ATOM     18  H   UNL     1       2.837  10.575  -1.143  0.00  0.00    +0.000 HD
BRANCH  15  19
ATOM     19  C   UNL     1       5.959  11.710  -0.078  0.00  0.00    +0.000 C 
ATOM     20  H   UNL     1       6.464  11.827  -1.043  0.00  0.00    +0.000 HD
ATOM     21  H   UNL     1       5.679  12.702   0.293  0.00  0.00    +0.000 HD
ATOM     22  H   UNL     1       6.683  11.285   0.626  0.00  0.00    +0.000 HD
ENDBRANCH  15  19
ENDBRANCH   1  15
BRANCH   5  23
ATOM     23  C   UNL     1       5.131   6.781   3.900  0.00  0.00    +0.000 C 
ATOM     24  H   UNL     1       5.981   6.129   3.671  0.00  0.00    +0.000 HD
ATOM     25  H   UNL     1       4.235   6.154   3.959  0.00  0.00    +0.000 HD
ATOM     26  H   UNL     1       5.292   7.227   4.888  0.00  0.00    +0.000 HD
ENDBRANCH   5  23
TORSDOF 3
ENDMDL
MODEL 4
REMARK VINA RESULT:    -5.224     17.219     18.801
REMARK INTER + INTRA:          -5.989
REMARK INTER:                  -5.845
REMARK INTRA:                  -0.144
REMARK UNBOUND:                -0.154
REMARK  Name = 22311
REMARK  3 active torsions:
REMARK  status: ('A' for Active; 'I' for Inactive)
REMARK    1  A    between atoms: C_1  and  C_7
REMARK    2  A    between atoms: C_5  and  C_8
REMARK    3  A    between atoms: C_7  and  C_9
REMARK                            x       y       z     vdW  Elec       q    Type
REMARK                         _______ _______ _______ _____ _____    ______ ____
ROOT
ATOM      1  C   UNL     1      -8.808  11.156   6.757  0.00  0.00    +0.000 C 
ATOM      2  C   UNL     1      -7.836  11.795   7.747  0.00  0.00    +0.000 C 
ATOM      3  C   UNL     1      -8.123  10.891   5.413  0.00  0.00    +0.000 C 
ATOM      4  C   UNL     1      -7.281  13.114   7.204  0.00  0.00    +0.000 C 
ATOM      5  C   UNL     1      -6.887  13.049   5.749  0.00  0.00    +0.000 C 
ATOM      6  C   UNL     1      -7.260  12.031   4.956  0.00  0.00    +0.000 C 
ATOM      7  H   UNL     1      -9.637  11.858   6.591  0.00  0.00    +0.000 HD
ATOM      8  H   UNL     1      -6.987  11.129   7.954  0.00  0.00    +0.000 HD
ATOM      9  H   UNL     1      -8.327  11.982   8.711  0.00  0.00    +0.000 HD
ATOM     10  H   UNL     1      -8.893  10.707   4.653  0.00  0.00    +0.000 HD
ATOM     11  H   UNL     1      -7.488   9.997   5.431  0.00  0.00    +0.000 HD
ATOM     12  H   UNL     1      -6.416  13.403   7.813  0.00  0.00    +0.000 HD
ATOM     13  H   UNL     1      -8.036  13.902   7.323  0.00  0.00    +0.000 HD
ATOM     14  H   UNL     1      -6.941  12.010   3.917  0.00  0.00    +0.000 HD
ENDROOT
BRANCH   1  15
ATOM     15  C   UNL     1      -9.336   9.876   7.328  0.00  0.00    +0.000 C 
ATOM     16  C   UNL     1      -8.524   8.940   7.840  0.00  0.00    +0.000 C 
ATOM     17  H   UNL     1      -8.925   8.018   8.249  0.00  0.00    +0.000 HD
ATOM     18  H   UNL     1      -7.447   9.057   7.873  0.00  0.00    +0.000 HD
BRANCH  15  19
ATOM     19  C   UNL     1     -10.826   9.701   7.291  0.00  0.00    +0.000 C 
ATOM     20  H   UNL     1     -11.126   8.864   7.930  0.00  0.00    +0.000 HD
ATOM     21  H   UNL     1     -11.324  10.609   7.648  0.00  0.00    +0.000 HD
ATOM     22  H   UNL     1     -11.193   9.496   6.280  0.00  0.00    +0.000 HD
ENDBRANCH  15  19
ENDBRANCH   1  15
BRANCH   5  23
ATOM     23  C   UNL     1      -6.054  14.188   5.240  0.00  0.00    +0.000 C 
ATOM     24  H   UNL     1      -6.534  15.143   5.476  0.00  0.00    +0.000 HD
ATOM     25  H   UNL     1      -5.914  14.144   4.154  0.00  0.00    +0.000 HD
ATOM     26  H   UNL     1      -5.063  14.172   5.704  0.00  0.00    +0.000 HD
ENDBRANCH   5  23
TORSDOF 3
ENDMDL
MODEL 5
REMARK VINA RESULT:    -5.224     13.185     14.798
REMARK INTER + INTRA:          -5.989
REMARK INTER:                  -5.842
REMARK INTRA:                  -0.146
REMARK UNBOUND:                -0.154
REMARK  Name = 22311
REMARK  3 active torsions:
REMARK  status: ('A' for Active; 'I' for Inactive)
REMARK    1  A    between atoms: C_1  and  C_7
REMARK    2  A    between atoms: C_5  and  C_8
REMARK    3  A    between atoms: C_7  and  C_9
REMARK                            x       y       z     vdW  Elec       q    Type
REMARK                         _______ _______ _______ _____ _____    ______ ____
ROOT
ATOM      1  C   UNL     1       5.461   8.650   2.730  0.00  0.00    +0.000 C 
ATOM      2  C   UNL     1       6.025   8.283   1.359  0.00  0.00    +0.000 C 
ATOM      3  C   UNL     1       3.954   8.910   2.649  0.00  0.00    +0.000 C 
ATOM      4  C   UNL     1       5.767   9.397   0.340  0.00  0.00    +0.000 C 
ATOM      5  C   UNL     1       4.374   9.972   0.415  0.00  0.00    +0.000 C 
ATOM      6  C   UNL     1       3.560   9.731   1.456  0.00  0.00    +0.000 C 
ATOM      7  H   UNL     1       5.954   9.572   3.067  0.00  0.00    +0.000 HD
ATOM      8  H   UNL     1       5.568   7.360   0.975  0.00  0.00    +0.000 HD
ATOM      9  H   UNL     1       7.104   8.095   1.418  0.00  0.00    +0.000 HD
ATOM     10  H   UNL     1       3.636   9.437   3.558  0.00  0.00    +0.000 HD
ATOM     11  H   UNL     1       3.367   7.985   2.608  0.00  0.00    +0.000 HD
ATOM     12  H   UNL     1       5.953   8.997  -0.665  0.00  0.00    +0.000 HD
ATOM     13  H   UNL     1       6.487  10.209   0.501  0.00  0.00    +0.000 HD
ATOM     14  H   UNL     1       2.557  10.148   1.465  0.00  0.00    +0.000 HD
ENDROOT
BRANCH   1  15
ATOM     15  C   UNL     1       5.741   7.543   3.699  0.00  0.00    +0.000 C 
ATOM     16  C   UNL     1       5.113   6.360   3.627  0.00  0.00    +0.000 C 
ATOM     17  H   UNL     1       5.329   5.570   4.338  0.00  0.00    +0.000 HD
ATOM     18  H   UNL     1       4.373   6.139   2.865  0.00  0.00    +0.000 HD
BRANCH  15  19
ATOM     19  C   UNL     1       6.766   7.834   4.756  0.00  0.00    +0.000 C 
ATOM     20  H   UNL     1       7.316   8.748   4.513  0.00  0.00    +0.000 HD
ATOM     21  H   UNL     1       6.280   7.965   5.729  0.00  0.00    +0.000 HD
ATOM     22  H   UNL     1       7.496   7.023   4.857  0.00  0.00    +0.000 HD
ENDBRANCH  15  19
ENDBRANCH   1  15
BRANCH   5  23
ATOM     23  C   UNL     1       3.952  10.831  -0.740  0.00  0.00    +0.000 C 
ATOM     24  H   UNL     1       3.796  10.216  -1.633  0.00  0.00    +0.000 HD
ATOM     25  H   UNL     1       4.702  11.591  -0.986  0.00  0.00    +0.000 HD
ATOM     26  H   UNL     1       3.016  11.349  -0.507  0.00  0.00    +0.000 HD
ENDBRANCH   5  23
TORSDOF 3
ENDMDL
MODEL 6
REMARK VINA RESULT:    -5.170      0.951      4.188
REMARK INTER + INTRA:          -5.928
REMARK INTER:                  -5.773
REMARK INTRA:                  -0.155
REMARK UNBOUND:                -0.154
REMARK  Name = 22311
REMARK  3 active torsions:
REMARK  status: ('A' for Active; 'I' for Inactive)
REMARK    1  A    between atoms: C_1  and  C_7
REMARK    2  A    between atoms: C_5  and  C_8
REMARK    3  A    between atoms: C_7  and  C_9
REMARK                            x       y       z     vdW  Elec       q    Type
REMARK                         _______ _______ _______ _____ _____    ______ ____
ROOT
ATOM      1  C   UNL     1      -1.048   8.807 -11.700  0.00  0.00    +0.000 C 
ATOM      2  C   UNL     1      -2.107   9.612 -10.950  0.00  0.00    +0.000 C 
ATOM      3  C   UNL     1      -1.595   7.438 -12.117  0.00  0.00    +0.000 C 
ATOM      4  C   UNL     1      -2.584   8.866  -9.700  0.00  0.00    +0.000 C 
ATOM      5  C   UNL     1      -2.828   7.395  -9.932  0.00  0.00    +0.000 C 
ATOM      6  C   UNL     1      -2.389   6.767 -11.036  0.00  0.00    +0.000 C 
ATOM      7  H   UNL     1      -0.197   8.649 -11.025  0.00  0.00    +0.000 HD
ATOM      8  H   UNL     1      -2.983   9.804 -11.585  0.00  0.00    +0.000 HD
ATOM      9  H   UNL     1      -1.715  10.593 -10.654  0.00  0.00    +0.000 HD
ATOM     10  H   UNL     1      -0.753   6.789 -12.389  0.00  0.00    +0.000 HD
ATOM     11  H   UNL     1      -2.241   7.493 -13.001  0.00  0.00    +0.000 HD
ATOM     12  H   UNL     1      -3.503   9.345  -9.341  0.00  0.00    +0.000 HD
ATOM     13  H   UNL     1      -1.834   8.972  -8.906  0.00  0.00    +0.000 HD
ATOM     14  H   UNL     1      -2.601   5.710 -11.175  0.00  0.00    +0.000 HD
ENDROOT
BRANCH   1  15
ATOM     15  C   UNL     1      -0.600   9.572 -12.907  0.00  0.00    +0.000 C 
ATOM     16  C   UNL     1      -0.672  10.910 -12.967  0.00  0.00    +0.000 C 
ATOM     17  H   UNL     1      -0.343  11.448 -13.850  0.00  0.00    +0.000 HD
ATOM     18  H   UNL     1      -1.053  11.510 -12.147  0.00  0.00    +0.000 HD
BRANCH  15  19
ATOM     19  C   UNL     1      -0.068   8.756 -14.048  0.00  0.00    +0.000 C 
ATOM     20  H   UNL     1      -0.780   7.970 -14.320  0.00  0.00    +0.000 HD
ATOM     21  H   UNL     1       0.103   9.392 -14.923  0.00  0.00    +0.000 HD
ATOM     22  H   UNL     1       0.883   8.271 -13.799  0.00  0.00    +0.000 HD
ENDBRANCH  15  19
ENDBRANCH   1  15
BRANCH   5  23
ATOM     23  C   UNL     1      -3.586   6.675  -8.857  0.00  0.00    +0.000 C 
ATOM     24  H   UNL     1      -3.275   5.626  -8.811  0.00  0.00    +0.000 HD
ATOM     25  H   UNL     1      -4.668   6.695  -9.030  0.00  0.00    +0.000 HD
ATOM     26  H   UNL     1      -3.397   7.137  -7.882  0.00  0.00    +0.000 HD
ENDBRANCH   5  23
TORSDOF 3
ENDMDL
MODEL 7
REMARK VINA RESULT:    -4.822      9.282     10.584
REMARK INTER + INTRA:          -5.539
REMARK INTER:                  -5.384
REMARK INTRA:                  -0.156
REMARK UNBOUND:                -0.154
REMARK  Name = 22311
REMARK  3 active torsions:
REMARK  status: ('A' for Active; 'I' for Inactive)
REMARK    1  A    between atoms: C_1  and  C_7
REMARK    2  A    between atoms: C_5  and  C_8
REMARK    3  A    between atoms: C_7  and  C_9
REMARK                            x       y       z     vdW  Elec       q    Type
REMARK                         _______ _______ _______ _____ _____    ______ ____
ROOT
ATOM      1  C   UNL     1     -10.565   7.095  -5.646  0.00  0.00    +0.000 C 
ATOM      2  C   UNL     1     -11.125   5.792  -6.213  0.00  0.00    +0.000 C 
ATOM      3  C   UNL     1      -9.033   7.079  -5.650  0.00  0.00    +0.000 C 
ATOM      4  C   UNL     1     -10.639   4.585  -5.406  0.00  0.00    +0.000 C 
ATOM      5  C   UNL     1      -9.173   4.645  -5.054  0.00  0.00    +0.000 C 
ATOM      6  C   UNL     1      -8.456   5.775  -5.185  0.00  0.00    +0.000 C 
ATOM      7  H   UNL     1     -10.908   7.191  -4.607  0.00  0.00    +0.000 HD
ATOM      8  H   UNL     1     -10.816   5.648  -7.258  0.00  0.00    +0.000 HD
ATOM      9  H   UNL     1     -12.222   5.805  -6.212  0.00  0.00    +0.000 HD
ATOM     10  H   UNL     1      -8.669   7.878  -4.993  0.00  0.00    +0.000 HD
ATOM     11  H   UNL     1      -8.611   7.279  -6.642  0.00  0.00    +0.000 HD
ATOM     12  H   UNL     1     -10.847   3.676  -5.983  0.00  0.00    +0.000 HD
ATOM     13  H   UNL     1     -11.216   4.514  -4.475  0.00  0.00    +0.000 HD
ATOM     14  H   UNL     1      -7.397   5.774  -4.939  0.00  0.00    +0.000 HD
ENDROOT
BRANCH   1  15
ATOM     15  C   UNL     1     -11.070   8.250  -6.454  0.00  0.00    +0.000 C 
ATOM     16  C   UNL     1     -10.341   9.361  -6.638  0.00  0.00    +0.000 C 
ATOM     17  H   UNL     1     -10.723  10.188  -7.226  0.00  0.00    +0.000 HD
ATOM     18  H   UNL     1      -9.349   9.483  -6.217  0.00  0.00    +0.000 HD
BRANCH  15  19
ATOM     19  C   UNL     1     -12.440   8.095  -7.046  0.00  0.00    +0.000 C 
ATOM     20  H   UNL     1     -13.073   7.490  -6.388  0.00  0.00    +0.000 HD
ATOM     21  H   UNL     1     -12.910   9.075  -7.179  0.00  0.00    +0.000 HD
ATOM     22  H   UNL     1     -12.413   7.604  -8.025  0.00  0.00    +0.000 HD
ENDBRANCH  15  19
ENDBRANCH   1  15
BRANCH   5  23
ATOM     23  C   UNL     1      -8.563   3.372  -4.549  0.00  0.00    +0.000 C 
ATOM     24  H   UNL     1      -7.638   3.585  -4.002  0.00  0.00    +0.000 HD
ATOM     25  H   UNL     1      -8.318   2.680  -5.362  0.00  0.00    +0.000 HD
ATOM     26  H   UNL     1      -9.256   2.860  -3.873  0.00  0.00    +0.000 HD
ENDBRANCH   5  23
TORSDOF 3
ENDMDL
MODEL 8
REMARK VINA RESULT:    -4.820     26.097     27.193
REMARK INTER + INTRA:          -5.537
REMARK INTER:                  -5.385
REMARK INTRA:                  -0.152
REMARK UNBOUND:                -0.154
REMARK  Name = 22311
REMARK  3 active torsions:
REMARK  status: ('A' for Active; 'I' for Inactive)
REMARK    1  A    between atoms: C_1  and  C_7
REMARK    2  A    between atoms: C_5  and  C_8
REMARK    3  A    between atoms: C_7  and  C_9
REMARK                            x       y       z     vdW  Elec       q    Type
REMARK                         _______ _______ _______ _____ _____    ______ ____
ROOT
ATOM      1  C   UNL     1     -21.257  -2.323   5.206  0.00  0.00    +0.000 C 
ATOM      2  C   UNL     1     -21.201  -1.910   3.737  0.00  0.00    +0.000 C 
ATOM      3  C   UNL     1     -20.430  -3.588   5.451  0.00  0.00    +0.000 C 
ATOM      4  C   UNL     1     -21.721  -3.027   2.828  0.00  0.00    +0.000 C 
ATOM      5  C   UNL     1     -21.220  -4.398   3.211  0.00  0.00    +0.000 C 
ATOM      6  C   UNL     1     -20.624  -4.634   4.392  0.00  0.00    +0.000 C 
ATOM      7  H   UNL     1     -22.304  -2.539   5.460  0.00  0.00    +0.000 HD
ATOM      8  H   UNL     1     -20.172  -1.675   3.430  0.00  0.00    +0.000 HD
ATOM      9  H   UNL     1     -21.792  -1.002   3.563  0.00  0.00    +0.000 HD
ATOM     10  H   UNL     1     -20.713  -4.015   6.421  0.00  0.00    +0.000 HD
ATOM     11  H   UNL     1     -19.353  -3.385   5.505  0.00  0.00    +0.000 HD
ATOM     12  H   UNL     1     -21.431  -2.798   1.796  0.00  0.00    +0.000 HD
ATOM     13  H   UNL     1     -22.818  -3.038   2.859  0.00  0.00    +0.000 HD
ATOM     14  H   UNL     1     -20.259  -5.631   4.623  0.00  0.00    +0.000 HD
ENDROOT
BRANCH   1  15
ATOM     15  C   UNL     1     -20.751  -1.202   6.061  0.00  0.00    +0.000 C 
ATOM     16  C   UNL     1     -20.684  -1.303   7.397  0.00  0.00    +0.000 C 
ATOM     17  H   UNL     1     -20.314  -0.480   8.000  0.00  0.00    +0.000 HD
ATOM     18  H   UNL     1     -20.988  -2.197   7.929  0.00  0.00    +0.000 HD
BRANCH  15  19
ATOM     19  C   UNL     1     -20.323   0.041   5.337  0.00  0.00    +0.000 C 
ATOM     20  H   UNL     1     -19.402  -0.144   4.774  0.00  0.00    +0.000 HD
ATOM     21  H   UNL     1     -21.103   0.360   4.638  0.00  0.00    +0.000 HD
ATOM     22  H   UNL     1     -20.131   0.873   6.024  0.00  0.00    +0.000 HD
ENDBRANCH  15  19
ENDBRANCH   1  15
BRANCH   5  23
ATOM     23  C   UNL     1     -21.427  -5.483   2.196  0.00  0.00    +0.000 C 
ATOM     24  H   UNL     1     -21.243  -6.464   2.647  0.00  0.00    +0.000 HD
ATOM     25  H   UNL     1     -20.756  -5.379   1.337  0.00  0.00    +0.000 HD
ATOM     26  H   UNL     1     -22.456  -5.460   1.819  0.00  0.00    +0.000 HD
ENDBRANCH   5  23
TORSDOF 3
ENDMDL
MODEL 9
REMARK VINA RESULT:    -4.776     26.479     27.328
REMARK INTER + INTRA:          -5.488
REMARK INTER:                  -5.337
REMARK INTRA:                  -0.151
REMARK UNBOUND:                -0.154
REMARK  Name = 22311
REMARK  3 active torsions:
REMARK  status: ('A' for Active; 'I' for Inactive)
REMARK    1  A    between atoms: C_1  and  C_7
REMARK    2  A    between atoms: C_5  and  C_8
REMARK    3  A    between atoms: C_7  and  C_9
REMARK                            x       y       z     vdW  Elec       q    Type
REMARK                         _______ _______ _______ _____ _____    ______ ____
ROOT
ATOM      1  C   UNL     1     -21.284  -3.947   4.043  0.00  0.00    +0.000 C 
ATOM      2  C   UNL     1     -20.312  -4.070   5.215  0.00  0.00    +0.000 C 
ATOM      3  C   UNL     1     -21.135  -2.589   3.350  0.00  0.00    +0.000 C 
ATOM      4  C   UNL     1     -20.544  -2.960   6.244  0.00  0.00    +0.000 C 
ATOM      5  C   UNL     1     -20.758  -1.601   5.626  0.00  0.00    +0.000 C 
ATOM      6  C   UNL     1     -21.009  -1.446   4.315  0.00  0.00    +0.000 C 
ATOM      7  H   UNL     1     -22.306  -4.025   4.437  0.00  0.00    +0.000 HD
ATOM      8  H   UNL     1     -19.269  -4.004   4.874  0.00  0.00    +0.000 HD
ATOM      9  H   UNL     1     -20.417  -5.044   5.708  0.00  0.00    +0.000 HD
ATOM     10  H   UNL     1     -22.015  -2.416   2.716  0.00  0.00    +0.000 HD
ATOM     11  H   UNL     1     -20.263  -2.545   2.687  0.00  0.00    +0.000 HD
ATOM     12  H   UNL     1     -19.683  -2.931   6.922  0.00  0.00    +0.000 HD
ATOM     13  H   UNL     1     -21.424  -3.207   6.851  0.00  0.00    +0.000 HD
ATOM     14  H   UNL     1     -21.138  -0.449   3.903  0.00  0.00    +0.000 HD
ENDROOT
BRANCH   1  15
ATOM     15  C   UNL     1     -21.032  -5.053   3.065  0.00  0.00    +0.000 C 
ATOM     16  C   UNL     1     -21.949  -5.421   2.158  0.00  0.00    +0.000 C 
ATOM     17  H   UNL     1     -21.749  -6.225   1.458  0.00  0.00    +0.000 HD
ATOM     18  H   UNL     1     -22.917  -4.938   2.079  0.00  0.00    +0.000 HD
BRANCH  15  19
ATOM     19  C   UNL     1     -19.696  -5.729   3.160  0.00  0.00    +0.000 C 
ATOM     20  H   UNL     1     -19.759  -6.609   3.808  0.00  0.00    +0.000 HD
ATOM     21  H   UNL     1     -19.360  -6.047   2.167  0.00  0.00    +0.000 HD
ATOM     22  H   UNL     1     -18.927  -5.066   3.573  0.00  0.00    +0.000 HD
ENDBRANCH  15  19
ENDBRANCH   1  15
BRANCH   5  23
ATOM     23  C   UNL     1     -20.677  -0.431   6.562  0.00  0.00    +0.000 C 
ATOM     24  H   UNL     1     -20.452  -0.773   7.577  0.00  0.00    +0.000 HD
ATOM     25  H   UNL     1     -21.615   0.134   6.599  0.00  0.00    +0.000 HD
ATOM     26  H   UNL     1     -19.887   0.257   6.243  0.00  0.00    +0.000 HD
ENDBRANCH   5  23
TORSDOF 3
ENDMDL
MODEL 10
REMARK VINA RESULT:    -4.643     26.360     27.454
REMARK INTER + INTRA:          -5.340
REMARK INTER:                  -5.186
REMARK INTRA:                  -0.154
REMARK UNBOUND:                -0.154
REMARK  Name = 22311
REMARK  3 active torsions:
REMARK  status: ('A' for Active; 'I' for Inactive)
REMARK    1  A    between atoms: C_1  and  C_7
REMARK    2  A    between atoms: C_5  and  C_8
REMARK    3  A    between atoms: C_7  and  C_9
REMARK                            x       y       z     vdW  Elec       q    Type
REMARK                         _______ _______ _______ _____ _____    ______ ____
ROOT
ATOM      1  C   UNL     1      14.351  -4.512   6.877  0.00  0.00    +0.000 C 
ATOM      2  C   UNL     1      15.008  -4.076   8.185  0.00  0.00    +0.000 C 
ATOM      3  C   UNL     1      13.354  -3.458   6.388  0.00  0.00    +0.000 C 
ATOM      4  C   UNL     1      13.961  -3.839   9.276  0.00  0.00    +0.000 C 
ATOM      5  C   UNL     1      12.747  -3.084   8.794  0.00  0.00    +0.000 C 
ATOM      6  C   UNL     1      12.494  -2.906   7.486  0.00  0.00    +0.000 C 
ATOM      7  H   UNL     1      13.804  -5.446   7.064  0.00  0.00    +0.000 HD
ATOM      8  H   UNL     1      15.577  -3.145   8.052  0.00  0.00    +0.000 HD
ATOM      9  H   UNL     1      15.724  -4.831   8.533  0.00  0.00    +0.000 HD
ATOM     10  H   UNL     1      12.704  -3.910   5.627  0.00  0.00    +0.000 HD
ATOM     11  H   UNL     1      13.844  -2.604   5.906  0.00  0.00    +0.000 HD
ATOM     12  H   UNL     1      14.437  -3.293  10.100  0.00  0.00    +0.000 HD
ATOM     13  H   UNL     1      13.631  -4.805   9.678  0.00  0.00    +0.000 HD
ATOM     14  H   UNL     1      11.619  -2.340   7.178  0.00  0.00    +0.000 HD
ENDROOT
BRANCH   1  15
ATOM     15  C   UNL     1      15.406  -4.744   5.839  0.00  0.00    +0.000 C 
ATOM     16  C   UNL     1      15.811  -5.977   5.502  0.00  0.00    +0.000 C 
ATOM     17  H   UNL     1      16.578  -6.126   4.748  0.00  0.00    +0.000 HD
ATOM     18  H   UNL     1      15.398  -6.871   5.956  0.00  0.00    +0.000 HD
BRANCH  15  19
ATOM     19  C   UNL     1      15.985  -3.516   5.200  0.00  0.00    +0.000 C 
ATOM     20  H   UNL     1      15.188  -2.889   4.788  0.00  0.00    +0.000 HD
ATOM     21  H   UNL     1      16.545  -2.932   5.937  0.00  0.00    +0.000 HD
ATOM     22  H   UNL     1      16.671  -3.762   4.381  0.00  0.00    +0.000 HD
ENDBRANCH  15  19
ENDBRANCH   1  15
BRANCH   5  23
ATOM     23  C   UNL     1      11.839  -2.546   9.859  0.00  0.00    +0.000 C 
ATOM     24  H   UNL     1      11.242  -1.716   9.464  0.00  0.00    +0.000 HD
ATOM     25  H   UNL     1      12.394  -2.174  10.727  0.00  0.00    +0.000 HD
ATOM     26  H   UNL     1      11.157  -3.328  10.209  0.00  0.00    +0.000 HD
ENDBRANCH   5  23
TORSDOF 3
ENDMDL
