MODEL 1
REMARK VINA RESULT:    -5.201      0.000      0.000
REMARK INTER + INTRA:          -7.349
REMARK INTER:                  -6.806
REMARK INTRA:                  -0.543
REMARK UNBOUND:                -0.324
REMARK  Name = 6549
REMARK  8 active torsions:
REMARK  status: ('A' for Active; 'I' for Inactive)
REMARK    1  A    between atoms: O_1  and  C_2
REMARK    2  A    between atoms: C_2  and  C_3
REMARK    3  A    between atoms: C_2  and  C_5
REMARK    4  A    between atoms: C_2  and  C_6
REMARK    5  A    between atoms: C_3  and  C_4
REMARK    6  A    between atoms: C_4  and  C_7
REMARK    7  A    between atoms: C_8  and  C_9
REMARK    8  A    between atoms: C_8  and  C_10
REMARK                            x       y       z     vdW  Elec       q    Type
REMARK                         _______ _______ _______ _____ _____    ______ ____
ROOT
ATOM      1  C   UNL     1       3.740  10.401   1.212  0.00  0.00    +0.000 C 
ATOM      2  H   UNL     1       4.216  10.734   2.146  0.00  0.00    +0.000 HD
ATOM      3  H   UNL     1       2.689  10.708   1.314  0.00  0.00    +0.000 HD
ENDROOT
BRANCH   1   4
ATOM      4  C   UNL     1       3.820   8.873   1.116  0.00  0.00    +0.000 C 
ATOM      5  H   UNL     1       4.561   8.558   0.374  0.00  0.00    +0.000 HD
ATOM      6  H   UNL     1       2.864   8.466   0.765  0.00  0.00    +0.000 HD
BRANCH   4   7
ATOM      7  C   UNL     1       4.100   8.262   2.460  0.00  0.00    +0.000 C 
ATOM      8  C   UNL     1       5.262   7.740   2.899  0.00  0.00    +0.000 C 
ATOM      9  H   UNL     1       3.254   8.258   3.146  0.00  0.00    +0.000 HD
BRANCH   8  10
ATOM     10  C   UNL     1       5.479   7.143   4.260  0.00  0.00    +0.000 C 
ATOM     11  H   UNL     1       5.590   6.057   4.188  0.00  0.00    +0.000 HD
ATOM     12  H   UNL     1       4.630   7.366   4.913  0.00  0.00    +0.000 HD
ATOM     13  H   UNL     1       6.381   7.541   4.735  0.00  0.00    +0.000 HD
ENDBRANCH   8  10
BRANCH   8  14
ATOM     14  C   UNL     1       6.480   7.738   2.015  0.00  0.00    +0.000 C 
ATOM     15  H   UNL     1       6.719   8.762   1.708  0.00  0.00    +0.000 HD
ATOM     16  H   UNL     1       7.374   7.307   2.471  0.00  0.00    +0.000 HD
ATOM     17  H   UNL     1       6.282   7.151   1.110  0.00  0.00    +0.000 HD
ENDBRANCH   8  14
ENDBRANCH   4   7
ENDBRANCH   1   4
BRANCH   1  18
ATOM     18  C   UNL     1       4.367  11.168   0.023  0.00  0.00    +0.000 C 
BRANCH  18  19
ATOM     19  C   UNL     1       5.658  10.513  -0.423  0.00  0.00    +0.000 C 
ATOM     20  C   UNL     1       6.907  10.864  -0.093  0.00  0.00    +0.000 C 
ATOM     21  H   UNL     1       5.548   9.651  -1.080  0.00  0.00    +0.000 HD
ATOM     22  H   UNL     1       7.750  10.302  -0.481  0.00  0.00    +0.000 HD
ATOM     23  H   UNL     1       7.124  11.702   0.557  0.00  0.00    +0.000 HD
ENDBRANCH  18  19
BRANCH  18  24
ATOM     24  C   UNL     1       3.339  11.397  -1.091  0.00  0.00    +0.000 C 
ATOM     25  H   UNL     1       2.345  11.583  -0.667  0.00  0.00    +0.000 HD
ATOM     26  H   UNL     1       3.586  12.292  -1.676  0.00  0.00    +0.000 HD
ATOM     27  H   UNL     1       3.264  10.548  -1.776  0.00  0.00    +0.000 HD
ENDBRANCH  18  24
BRANCH  18  28
ATOM     28  O   UNL     1       4.710  12.479   0.506  0.00  0.00    +0.000 OA
ATOM     29  H   UNL     1       5.577  12.722   0.140  0.00  0.00    +0.000 HD
ENDBRANCH  18  28
ENDBRANCH   1  18
TORSDOF 8
ENDMDL
MODEL 2
REMARK VINA RESULT:    -4.876      2.297      4.780
REMARK INTER + INTRA:          -6.910
REMARK INTER:                  -6.513
REMARK INTRA:                  -0.397
REMARK UNBOUND:                -0.324
REMARK  Name = 6549
REMARK  8 active torsions:
REMARK  status: ('A' for Active; 'I' for Inactive)
REMARK    1  A    between atoms: O_1  and  C_2
REMARK    2  A    between atoms: C_2  and  C_3
REMARK    3  A    between atoms: C_2  and  C_5
REMARK    4  A    between atoms: C_2  and  C_6
REMARK    5  A    between atoms: C_3  and  C_4
REMARK    6  A    between atoms: C_4  and  C_7
REMARK    7  A    between atoms: C_8  and  C_9
REMARK    8  A    between atoms: C_8  and  C_10
REMARK                            x       y       z     vdW  Elec       q    Type
REMARK                         _______ _______ _______ _____ _____    ______ ____
ROOT
ATOM      1  C   UNL     1       3.809   8.328   2.462  0.00  0.00    +0.000 C 
ATOM      2  H   UNL     1       3.756   7.745   1.532  0.00  0.00    +0.000 HD
ATOM      3  H   UNL     1       2.887   8.068   3.004  0.00  0.00    +0.000 HD
ENDROOT
BRANCH   1   4
ATOM      4  C   UNL     1       3.801   9.824   2.128  0.00  0.00    +0.000 C 
ATOM      5  H   UNL     1       4.777  10.282   2.318  0.00  0.00    +0.000 HD
ATOM      6  H   UNL     1       3.098  10.354   2.782  0.00  0.00    +0.000 HD
BRANCH   4   7
ATOM      7  C   UNL     1       3.357  10.057   0.711  0.00  0.00    +0.000 C 
ATOM      8  C   UNL     1       3.870  10.931  -0.177  0.00  0.00    +0.000 C 
ATOM      9  H   UNL     1       2.528   9.432   0.383  0.00  0.00    +0.000 HD
BRANCH   8  10
ATOM     10  C   UNL     1       3.381  11.116  -1.585  0.00  0.00    +0.000 C 
ATOM     11  H   UNL     1       2.302  11.297  -1.594  0.00  0.00    +0.000 HD
ATOM     12  H   UNL     1       3.593  10.224  -2.182  0.00  0.00    +0.000 HD
ATOM     13  H   UNL     1       3.867  11.968  -2.071  0.00  0.00    +0.000 HD
ENDBRANCH   8  10
BRANCH   8  14
ATOM     14  C   UNL     1       5.035  11.807   0.200  0.00  0.00    +0.000 C 
ATOM     15  H   UNL     1       4.678  12.812   0.449  0.00  0.00    +0.000 HD
ATOM     16  H   UNL     1       5.626  11.442   1.044  0.00  0.00    +0.000 HD
ATOM     17  H   UNL     1       5.726  11.891  -0.647  0.00  0.00    +0.000 HD
ENDBRANCH   8  14
ENDBRANCH   4   7
ENDBRANCH   1   4
BRANCH   1  18
ATOM     18  C   UNL     1       5.024   7.847   3.292  0.00  0.00    +0.000 C 
BRANCH  18  19
ATOM     19  C   UNL     1       6.285   7.844   2.454  0.00  0.00    +0.000 C 
ATOM     20  C   UNL     1       7.299   8.718   2.504  0.00  0.00    +0.000 C 
ATOM     21  H   UNL     1       6.376   7.029   1.738  0.00  0.00    +0.000 HD
ATOM     22  H   UNL     1       8.153   8.598   1.846  0.00  0.00    +0.000 HD
ATOM     23  H   UNL     1       7.308   9.561   3.184  0.00  0.00    +0.000 HD
ENDBRANCH  18  19
BRANCH  18  24
ATOM     24  C   UNL     1       5.128   8.615   4.615  0.00  0.00    +0.000 C 
ATOM     25  H   UNL     1       5.515   7.966   5.409  0.00  0.00    +0.000 HD
ATOM     26  H   UNL     1       5.841   9.445   4.533  0.00  0.00    +0.000 HD
ATOM     27  H   UNL     1       4.166   9.021   4.944  0.00  0.00    +0.000 HD
ENDBRANCH  18  24
BRANCH  18  28
ATOM     28  O   UNL     1       4.764   6.481   3.660  0.00  0.00    +0.000 OA
ATOM     29  H   UNL     1       4.067   6.135   3.076  0.00  0.00    +0.000 HD
ENDBRANCH  18  28
ENDBRANCH   1  18
TORSDOF 8
ENDMDL
MODEL 3
REMARK VINA RESULT:    -4.691      2.054      4.872
REMARK INTER + INTRA:          -6.660
REMARK INTER:                  -6.187
REMARK INTRA:                  -0.473
REMARK UNBOUND:                -0.324
REMARK  Name = 6549
REMARK  8 active torsions:
REMARK  status: ('A' for Active; 'I' for Inactive)
REMARK    1  A    between atoms: O_1  and  C_2
REMARK    2  A    between atoms: C_2  and  C_3
REMARK    3  A    between atoms: C_2  and  C_5
REMARK    4  A    between atoms: C_2  and  C_6
REMARK    5  A    between atoms: C_3  and  C_4
REMARK    6  A    between atoms: C_4  and  C_7
REMARK    7  A    between atoms: C_8  and  C_9
REMARK    8  A    between atoms: C_8  and  C_10
REMARK                            x       y       z     vdW  Elec       q    Type
REMARK                         _______ _______ _______ _____ _____    ______ ____
ROOT
ATOM      1  C   UNL     1       6.331   7.908   1.930  0.00  0.00    +0.000 C 
ATOM      2  H   UNL     1       6.843   6.937   1.986  0.00  0.00    +0.000 HD
ATOM      3  H   UNL     1       5.884   7.926   0.925  0.00  0.00    +0.000 HD
ENDROOT
BRANCH   1   4
ATOM      4  C   UNL     1       7.362   9.035   2.052  0.00  0.00    +0.000 C 
ATOM      5  H   UNL     1       8.090   8.827   2.843  0.00  0.00    +0.000 HD
ATOM      6  H   UNL     1       6.868   9.969   2.348  0.00  0.00    +0.000 HD
BRANCH   4   7
ATOM      7  C   UNL     1       8.044   9.288   0.737  0.00  0.00    +0.000 C 
ATOM      8  C   UNL     1       7.727  10.216  -0.187  0.00  0.00    +0.000 C 
ATOM      9  H   UNL     1       8.895   8.640   0.531  0.00  0.00    +0.000 HD
BRANCH   8  10
ATOM     10  C   UNL     1       8.451  10.420  -1.488  0.00  0.00    +0.000 C 
ATOM     11  H   UNL     1       8.839  11.441  -1.553  0.00  0.00    +0.000 HD
ATOM     12  H   UNL     1       7.776  10.246  -2.330  0.00  0.00    +0.000 HD
ATOM     13  H   UNL     1       9.297   9.732  -1.589  0.00  0.00    +0.000 HD
ENDBRANCH   8  10
BRANCH   8  14
ATOM     14  C   UNL     1       6.580  11.163   0.044  0.00  0.00    +0.000 C 
ATOM     15  H   UNL     1       5.672  10.768  -0.423  0.00  0.00    +0.000 HD
ATOM     16  H   UNL     1       6.358  11.362   1.095  0.00  0.00    +0.000 HD
ATOM     17  H   UNL     1       6.803  12.134  -0.413  0.00  0.00    +0.000 HD
ENDBRANCH   8  14
ENDBRANCH   4   7
ENDBRANCH   1   4
BRANCH   1  18
ATOM     18  C   UNL     1       5.193   7.942   2.979  0.00  0.00    +0.000 C 
BRANCH  18  19
ATOM     19  C   UNL     1       3.913   8.477   2.372  0.00  0.00    +0.000 C 
ATOM     20  C   UNL     1       3.752   9.025   1.161  0.00  0.00    +0.000 C 
ATOM     21  H   UNL     1       3.023   8.392   2.995  0.00  0.00    +0.000 HD
ATOM     22  H   UNL     1       2.772   9.366   0.845  0.00  0.00    +0.000 HD
ATOM     23  H   UNL     1       4.572   9.150   0.465  0.00  0.00    +0.000 HD
ENDBRANCH  18  19
BRANCH  18  24
ATOM     24  C   UNL     1       5.057   6.589   3.689  0.00  0.00    +0.000 C 
ATOM     25  H   UNL     1       5.740   5.852   3.251  0.00  0.00    +0.000 HD
ATOM     26  H   UNL     1       5.341   6.669   4.746  0.00  0.00    +0.000 HD
ATOM     27  H   UNL     1       4.041   6.186   3.636  0.00  0.00    +0.000 HD
ENDBRANCH  18  24
BRANCH  18  28
ATOM     28  O   UNL     1       5.593   8.873   4.000  0.00  0.00    +0.000 OA
ATOM     29  H   UNL     1       4.794   9.188   4.456  0.00  0.00    +0.000 HD
ENDBRANCH  18  28
ENDBRANCH   1  18
TORSDOF 8
ENDMDL
MODEL 4
REMARK VINA RESULT:    -4.625     15.359     17.084
REMARK INTER + INTRA:          -6.570
REMARK INTER:                  -6.481
REMARK INTRA:                  -0.090
REMARK UNBOUND:                -0.324
REMARK  Name = 6549
REMARK  8 active torsions:
REMARK  status: ('A' for Active; 'I' for Inactive)
REMARK    1  A    between atoms: O_1  and  C_2
REMARK    2  A    between atoms: C_2  and  C_3
REMARK    3  A    between atoms: C_2  and  C_5
REMARK    4  A    between atoms: C_2  and  C_6
REMARK    5  A    between atoms: C_3  and  C_4
REMARK    6  A    between atoms: C_4  and  C_7
REMARK    7  A    between atoms: C_8  and  C_9
REMARK    8  A    between atoms: C_8  and  C_10
REMARK                            x       y       z     vdW  Elec       q    Type
REMARK                         _______ _______ _______ _____ _____    ______ ____
ROOT
ATOM      1  C   UNL     1      -9.821   6.374  -5.730  0.00  0.00    +0.000 C 
ATOM      2  H   UNL     1     -10.340   5.768  -6.487  0.00  0.00    +0.000 HD
ATOM      3  H   UNL     1     -10.387   6.201  -4.803  0.00  0.00    +0.000 HD
ENDROOT
BRANCH   1   4
ATOM      4  C   UNL     1      -9.908   7.855  -6.116  0.00  0.00    +0.000 C 
ATOM      5  H   UNL     1      -9.093   8.433  -5.670  0.00  0.00    +0.000 HD
ATOM      6  H   UNL     1     -10.830   8.295  -5.718  0.00  0.00    +0.000 HD
BRANCH   4   7
ATOM      7  C   UNL     1      -9.942   8.022  -7.609  0.00  0.00    +0.000 C 
ATOM      8  C   UNL     1     -10.286   9.124  -8.304  0.00  0.00    +0.000 C 
ATOM      9  H   UNL     1      -9.641   7.142  -8.175  0.00  0.00    +0.000 HD
BRANCH   8  10
ATOM     10  C   UNL     1     -10.298   9.229  -9.803  0.00  0.00    +0.000 C 
ATOM     11  H   UNL     1      -9.329   8.932 -10.215  0.00  0.00    +0.000 HD
ATOM     12  H   UNL     1     -10.510  10.257 -10.110  0.00  0.00    +0.000 HD
ATOM     13  H   UNL     1     -11.063   8.582 -10.246  0.00  0.00    +0.000 HD
ENDBRANCH   8  10
BRANCH   8  14
ATOM     14  C   UNL     1     -10.685  10.385  -7.587  0.00  0.00    +0.000 C 
ATOM     15  H   UNL     1     -11.039  11.128  -8.310  0.00  0.00    +0.000 HD
ATOM     16  H   UNL     1     -11.464  10.254  -6.833  0.00  0.00    +0.000 HD
ATOM     17  H   UNL     1      -9.818  10.806  -7.065  0.00  0.00    +0.000 HD
ENDBRANCH   8  14
ENDBRANCH   4   7
ENDBRANCH   1   4
BRANCH   1  18
ATOM     18  C   UNL     1      -8.385   5.827  -5.544  0.00  0.00    +0.000 C 
BRANCH  18  19
ATOM     19  C   UNL     1      -8.388   4.579  -4.686  0.00  0.00    +0.000 C 
ATOM     20  C   UNL     1      -9.132   3.478  -4.851  0.00  0.00    +0.000 C 
ATOM     21  H   UNL     1      -7.694   4.581  -3.846  0.00  0.00    +0.000 HD
ATOM     22  H   UNL     1      -9.032   2.646  -4.162  0.00  0.00    +0.000 HD
ATOM     23  H   UNL     1      -9.847   3.375  -5.657  0.00  0.00    +0.000 HD
ENDBRANCH  18  19
BRANCH  18  24
ATOM     24  C   UNL     1      -7.669   5.683  -6.892  0.00  0.00    +0.000 C 
ATOM     25  H   UNL     1      -7.830   4.683  -7.311  0.00  0.00    +0.000 HD
ATOM     26  H   UNL     1      -8.076   6.386  -7.631  0.00  0.00    +0.000 HD
ATOM     27  H   UNL     1      -6.590   5.853  -6.817  0.00  0.00    +0.000 HD
ENDBRANCH  18  24
BRANCH  18  28
ATOM     28  O   UNL     1      -7.647   6.829  -4.821  0.00  0.00    +0.000 OA
ATOM     29  H   UNL     1      -8.197   7.629  -4.760  0.00  0.00    +0.000 HD
ENDBRANCH  18  28
ENDBRANCH   1  18
TORSDOF 8
ENDMDL
MODEL 5
REMARK VINA RESULT:    -4.610     28.583     29.988
REMARK INTER + INTRA:          -6.550
REMARK INTER:                  -5.733
REMARK INTRA:                  -0.818
REMARK UNBOUND:                -0.324
REMARK  Name = 6549
REMARK  8 active torsions:
REMARK  status: ('A' for Active; 'I' for Inactive)
REMARK    1  A    between atoms: O_1  and  C_2
REMARK    2  A    between atoms: C_2  and  C_3
REMARK    3  A    between atoms: C_2  and  C_5
REMARK    4  A    between atoms: C_2  and  C_6
REMARK    5  A    between atoms: C_3  and  C_4
REMARK    6  A    between atoms: C_4  and  C_7
REMARK    7  A    between atoms: C_8  and  C_9
REMARK    8  A    between atoms: C_8  and  C_10
REMARK                            x       y       z     vdW  Elec       q    Type
REMARK                         _______ _______ _______ _____ _____    ______ ____
ROOT
ATOM      1  C   UNL     1     -21.379  -0.388   8.006  0.00  0.00    +0.000 C 
ATOM      2  H   UNL     1     -21.716   0.474   7.412  0.00  0.00    +0.000 HD
ATOM      3  H   UNL     1     -20.832   0.057   8.850  0.00  0.00    +0.000 HD
ENDROOT
BRANCH   1   4
ATOM      4  C   UNL     1     -20.422  -1.242   7.167  0.00  0.00    +0.000 C 
ATOM      5  H   UNL     1     -20.463  -2.296   7.461  0.00  0.00    +0.000 HD
ATOM      6  H   UNL     1     -19.385  -0.931   7.344  0.00  0.00    +0.000 HD
BRANCH   4   7
ATOM      7  C   UNL     1     -20.695  -1.075   5.699  0.00  0.00    +0.000 C 
ATOM      8  C   UNL     1     -21.040  -2.030   4.814  0.00  0.00    +0.000 C 
ATOM      9  H   UNL     1     -20.607  -0.053   5.331  0.00  0.00    +0.000 HD
BRANCH   8  10
ATOM     10  C   UNL     1     -21.302  -1.797   3.353  0.00  0.00    +0.000 C 
ATOM     11  H   UNL     1     -21.198  -0.736   3.110  0.00  0.00    +0.000 HD
ATOM     12  H   UNL     1     -22.314  -2.120   3.092  0.00  0.00    +0.000 HD
ATOM     13  H   UNL     1     -20.600  -2.355   2.724  0.00  0.00    +0.000 HD
ENDBRANCH   8  10
BRANCH   8  14
ATOM     14  C   UNL     1     -21.208  -3.458   5.259  0.00  0.00    +0.000 C 
ATOM     15  H   UNL     1     -20.600  -3.643   6.151  0.00  0.00    +0.000 HD
ATOM     16  H   UNL     1     -22.236  -3.747   5.488  0.00  0.00    +0.000 HD
ATOM     17  H   UNL     1     -20.866  -4.136   4.469  0.00  0.00    +0.000 HD
ENDBRANCH   8  14
ENDBRANCH   4   7
ENDBRANCH   1   4
BRANCH   1  18
ATOM     18  C   UNL     1     -22.616  -1.137   8.557  0.00  0.00    +0.000 C 
BRANCH  18  19
ATOM     19  C   UNL     1     -23.811  -0.953   7.645  0.00  0.00    +0.000 C 
ATOM     20  C   UNL     1     -24.267  -1.804   6.717  0.00  0.00    +0.000 C 
ATOM     21  H   UNL     1     -24.364  -0.024   7.772  0.00  0.00    +0.000 HD
ATOM     22  H   UNL     1     -25.144  -1.550   6.131  0.00  0.00    +0.000 HD
ATOM     23  H   UNL     1     -23.793  -2.756   6.517  0.00  0.00    +0.000 HD
ENDBRANCH  18  19
BRANCH  18  24
ATOM     24  C   UNL     1     -22.276  -2.595   8.891  0.00  0.00    +0.000 C 
ATOM     25  H   UNL     1     -22.564  -2.833   9.921  0.00  0.00    +0.000 HD
ATOM     26  H   UNL     1     -22.842  -3.286   8.254  0.00  0.00    +0.000 HD
ATOM     27  H   UNL     1     -21.210  -2.816   8.775  0.00  0.00    +0.000 HD
ENDBRANCH  18  24
BRANCH  18  28
ATOM     28  O   UNL     1     -22.951  -0.523   9.814  0.00  0.00    +0.000 OA
ATOM     29  H   UNL     1     -23.901  -0.315   9.809  0.00  0.00    +0.000 HD
ENDBRANCH  18  28
ENDBRANCH   1  18
TORSDOF 8
ENDMDL
MODEL 6
REMARK VINA RESULT:    -4.567     13.428     14.709
REMARK INTER + INTRA:          -6.492
REMARK INTER:                  -5.891
REMARK INTRA:                  -0.601
REMARK UNBOUND:                -0.324
REMARK  Name = 6549
REMARK  8 active torsions:
REMARK  status: ('A' for Active; 'I' for Inactive)
REMARK    1  A    between atoms: O_1  and  C_2
REMARK    2  A    between atoms: C_2  and  C_3
REMARK    3  A    between atoms: C_2  and  C_5
REMARK    4  A    between atoms: C_2  and  C_6
REMARK    5  A    between atoms: C_3  and  C_4
REMARK    6  A    between atoms: C_4  and  C_7
REMARK    7  A    between atoms: C_8  and  C_9
REMARK    8  A    between atoms: C_8  and  C_10
REMARK                            x       y       z     vdW  Elec       q    Type
REMARK                         _______ _______ _______ _____ _____    ______ ____
ROOT
ATOM      1  C   UNL     1      -3.525   8.622 -11.871  0.00  0.00    +0.000 C 
ATOM      2  H   UNL     1      -4.154   9.081 -11.095  0.00  0.00    +0.000 HD
ATOM      3  H   UNL     1      -3.859   9.090 -12.808  0.00  0.00    +0.000 HD
ENDROOT
BRANCH   1   4
ATOM      4  C   UNL     1      -3.799   7.115 -11.924  0.00  0.00    +0.000 C 
ATOM      5  H   UNL     1      -2.884   6.536 -11.766  0.00  0.00    +0.000 HD
ATOM      6  H   UNL     1      -4.155   6.831 -12.922  0.00  0.00    +0.000 HD
BRANCH   4   7
ATOM      7  C   UNL     1      -4.867   6.726 -10.941  0.00  0.00    +0.000 C 
ATOM      8  C   UNL     1      -4.713   6.434  -9.635  0.00  0.00    +0.000 C 
ATOM      9  H   UNL     1      -5.875   6.690 -11.351  0.00  0.00    +0.000 HD
BRANCH   8  10
ATOM     10  C   UNL     1      -5.826   6.052  -8.700  0.00  0.00    +0.000 C 
ATOM     11  H   UNL     1      -6.794   6.342  -9.118  0.00  0.00    +0.000 HD
ATOM     12  H   UNL     1      -5.698   6.549  -7.733  0.00  0.00    +0.000 HD
ATOM     13  H   UNL     1      -5.848   4.972  -8.521  0.00  0.00    +0.000 HD
ENDBRANCH   8  10
BRANCH   8  14
ATOM     14  C   UNL     1      -3.352   6.492  -8.995  0.00  0.00    +0.000 C 
ATOM     15  H   UNL     1      -2.924   7.493  -9.119  0.00  0.00    +0.000 HD
ATOM     16  H   UNL     1      -3.339   6.251  -7.929  0.00  0.00    +0.000 HD
ATOM     17  H   UNL     1      -2.682   5.774  -9.481  0.00  0.00    +0.000 HD
ENDBRANCH   8  14
ENDBRANCH   4   7
ENDBRANCH   1   4
BRANCH   1  18
ATOM     18  C   UNL     1      -2.048   9.012 -11.621  0.00  0.00    +0.000 C 
BRANCH  18  19
ATOM     19  C   UNL     1      -1.897   9.747 -10.305  0.00  0.00    +0.000 C 
ATOM     20  C   UNL     1      -2.787   9.820  -9.306  0.00  0.00    +0.000 C 
ATOM     21  H   UNL     1      -0.950  10.263 -10.157  0.00  0.00    +0.000 HD
ATOM     22  H   UNL     1      -2.549  10.379  -8.408  0.00  0.00    +0.000 HD
ATOM     23  H   UNL     1      -3.755   9.338  -9.352  0.00  0.00    +0.000 HD
ENDBRANCH  18  19
BRANCH  18  24
ATOM     24  C   UNL     1      -1.120   7.804 -11.797  0.00  0.00    +0.000 C 
ATOM     25  H   UNL     1      -1.275   7.337 -12.777  0.00  0.00    +0.000 HD
ATOM     26  H   UNL     1      -0.067   8.111 -11.776  0.00  0.00    +0.000 HD
ATOM     27  H   UNL     1      -1.271   7.041 -11.027  0.00  0.00    +0.000 HD
ENDBRANCH  18  24
BRANCH  18  28
ATOM     28  O   UNL     1      -1.679   9.937 -12.660  0.00  0.00    +0.000 OA
ATOM     29  H   UNL     1      -0.975   9.530 -13.194  0.00  0.00    +0.000 HD
ENDBRANCH  18  28
ENDBRANCH   1  18
TORSDOF 8
ENDMDL
MODEL 7
REMARK VINA RESULT:    -4.465      3.753      5.539
REMARK INTER + INTRA:          -6.355
REMARK INTER:                  -6.054
REMARK INTRA:                  -0.300
REMARK UNBOUND:                -0.324
REMARK  Name = 6549
REMARK  8 active torsions:
REMARK  status: ('A' for Active; 'I' for Inactive)
REMARK    1  A    between atoms: O_1  and  C_2
REMARK    2  A    between atoms: C_2  and  C_3
REMARK    3  A    between atoms: C_2  and  C_5
REMARK    4  A    between atoms: C_2  and  C_6
REMARK    5  A    between atoms: C_3  and  C_4
REMARK    6  A    between atoms: C_4  and  C_7
REMARK    7  A    between atoms: C_8  and  C_9
REMARK    8  A    between atoms: C_8  and  C_10
REMARK                            x       y       z     vdW  Elec       q    Type
REMARK                         _______ _______ _______ _____ _____    ______ ____
ROOT
ATOM      1  C   UNL     1       6.351   8.309   5.246  0.00  0.00    +0.000 C 
ATOM      2  H   UNL     1       5.607   8.908   5.790  0.00  0.00    +0.000 HD
ATOM      3  H   UNL     1       6.363   7.342   5.769  0.00  0.00    +0.000 HD
ENDROOT
BRANCH   1   4
ATOM      4  C   UNL     1       7.727   8.974   5.367  0.00  0.00    +0.000 C 
ATOM      5  H   UNL     1       8.008   9.483   4.439  0.00  0.00    +0.000 HD
ATOM      6  H   UNL     1       8.501   8.215   5.529  0.00  0.00    +0.000 HD
BRANCH   4   7
ATOM      7  C   UNL     1       7.770   9.914   6.539  0.00  0.00    +0.000 C 
ATOM      8  C   UNL     1       8.362   9.712   7.732  0.00  0.00    +0.000 C 
ATOM      9  H   UNL     1       7.267  10.867   6.380  0.00  0.00    +0.000 HD
BRANCH   8  10
ATOM     10  C   UNL     1       8.372  10.696   8.867  0.00  0.00    +0.000 C 
ATOM     11  H   UNL     1       8.896  10.278   9.731  0.00  0.00    +0.000 HD
ATOM     12  H   UNL     1       7.348  10.943   9.164  0.00  0.00    +0.000 HD
ATOM     13  H   UNL     1       8.875  11.627   8.588  0.00  0.00    +0.000 HD
ENDBRANCH   8  10
BRANCH   8  14
ATOM     14  C   UNL     1       9.101   8.430   8.010  0.00  0.00    +0.000 C 
ATOM     15  H   UNL     1       9.932   8.621   8.698  0.00  0.00    +0.000 HD
ATOM     16  H   UNL     1       8.488   7.634   8.438  0.00  0.00    +0.000 HD
ATOM     17  H   UNL     1       9.518   8.031   7.078  0.00  0.00    +0.000 HD
ENDBRANCH   8  14
ENDBRANCH   4   7
ENDBRANCH   1   4
BRANCH   1  18
ATOM     18  C   UNL     1       5.856   8.082   3.797  0.00  0.00    +0.000 C 
BRANCH  18  19
ATOM     19  C   UNL     1       6.914   8.492   2.793  0.00  0.00    +0.000 C 
ATOM     20  C   UNL     1       6.894   8.306   1.467  0.00  0.00    +0.000 C 
ATOM     21  H   UNL     1       7.782   9.005   3.203  0.00  0.00    +0.000 HD
ATOM     22  H   UNL     1       7.720   8.656   0.857  0.00  0.00    +0.000 HD
ATOM     23  H   UNL     1       6.074   7.812   0.960  0.00  0.00    +0.000 HD
ENDBRANCH  18  19
BRANCH  18  24
ATOM     24  C   UNL     1       5.309   6.661   3.617  0.00  0.00    +0.000 C 
ATOM     25  H   UNL     1       4.352   6.680   3.084  0.00  0.00    +0.000 HD
ATOM     26  H   UNL     1       5.984   6.055   2.999  0.00  0.00    +0.000 HD
ATOM     27  H   UNL     1       5.159   6.143   4.569  0.00  0.00    +0.000 HD
ENDBRANCH  18  24
BRANCH  18  28
ATOM     28  O   UNL     1       4.731   8.956   3.598  0.00  0.00    +0.000 OA
ATOM     29  H   UNL     1       4.183   8.590   2.883  0.00  0.00    +0.000 HD
ENDBRANCH  18  28
ENDBRANCH   1  18
TORSDOF 8
ENDMDL
MODEL 8
REMARK VINA RESULT:    -4.439     27.552     28.858
REMARK INTER + INTRA:          -6.319
REMARK INTER:                  -6.039
REMARK INTRA:                  -0.280
REMARK UNBOUND:                -0.324
REMARK  Name = 6549
REMARK  8 active torsions:
REMARK  status: ('A' for Active; 'I' for Inactive)
REMARK    1  A    between atoms: O_1  and  C_2
REMARK    2  A    between atoms: C_2  and  C_3
REMARK    3  A    between atoms: C_2  and  C_5
REMARK    4  A    between atoms: C_2  and  C_6
REMARK    5  A    between atoms: C_3  and  C_4
REMARK    6  A    between atoms: C_4  and  C_7
REMARK    7  A    between atoms: C_8  and  C_9
REMARK    8  A    between atoms: C_8  and  C_10
REMARK                            x       y       z     vdW  Elec       q    Type
REMARK                         _______ _______ _______ _____ _____    ______ ____
ROOT
ATOM      1  C   UNL     1     -20.919  -2.417   4.641  0.00  0.00    +0.000 C 
ATOM      2  H   UNL     1     -21.539  -1.629   4.189  0.00  0.00    +0.000 HD
ATOM      3  H   UNL     1     -19.885  -2.066   4.504  0.00  0.00    +0.000 HD
ENDROOT
BRANCH   1   4
ATOM      4  C   UNL     1     -21.121  -3.728   3.873  0.00  0.00    +0.000 C 
ATOM      5  H   UNL     1     -22.070  -3.729   3.326  0.00  0.00    +0.000 HD
ATOM      6  H   UNL     1     -21.187  -4.569   4.574  0.00  0.00    +0.000 HD
BRANCH   4   7
ATOM      7  C   UNL     1     -19.963  -4.000   2.955  0.00  0.00    +0.000 C 
ATOM      8  C   UNL     1     -18.900  -4.794   3.189  0.00  0.00    +0.000 C 
ATOM      9  H   UNL     1     -20.013  -3.494   1.992  0.00  0.00    +0.000 HD
BRANCH   8  10
ATOM     10  C   UNL     1     -17.770  -5.027   2.226  0.00  0.00    +0.000 C 
ATOM     11  H   UNL     1     -18.156  -5.346   1.253  0.00  0.00    +0.000 HD
ATOM     12  H   UNL     1     -17.099  -5.802   2.608  0.00  0.00    +0.000 HD
ATOM     13  H   UNL     1     -17.180  -4.119   2.070  0.00  0.00    +0.000 HD
ENDBRANCH   8  10
BRANCH   8  14
ATOM     14  C   UNL     1     -18.779  -5.546   4.487  0.00  0.00    +0.000 C 
ATOM     15  H   UNL     1     -19.347  -5.032   5.269  0.00  0.00    +0.000 HD
ATOM     16  H   UNL     1     -19.124  -6.582   4.447  0.00  0.00    +0.000 HD
ATOM     17  H   UNL     1     -17.729  -5.583   4.798  0.00  0.00    +0.000 HD
ENDBRANCH   8  14
ENDBRANCH   4   7
ENDBRANCH   1   4
BRANCH   1  18
ATOM     18  C   UNL     1     -21.220  -2.489   6.157  0.00  0.00    +0.000 C 
BRANCH  18  19
ATOM     19  C   UNL     1     -20.473  -1.408   6.910  0.00  0.00    +0.000 C 
ATOM     20  C   UNL     1     -20.975  -0.533   7.791  0.00  0.00    +0.000 C 
ATOM     21  H   UNL     1     -19.403  -1.349   6.716  0.00  0.00    +0.000 HD
ATOM     22  H   UNL     1     -20.324   0.192   8.267  0.00  0.00    +0.000 HD
ATOM     23  H   UNL     1     -22.024  -0.512   8.058  0.00  0.00    +0.000 HD
ENDBRANCH  18  19
BRANCH  18  24
ATOM     24  C   UNL     1     -22.731  -2.534   6.418  0.00  0.00    +0.000 C 
ATOM     25  H   UNL     1     -22.956  -3.180   7.275  0.00  0.00    +0.000 HD
ATOM     26  H   UNL     1     -23.113  -1.540   6.684  0.00  0.00    +0.000 HD
ATOM     27  H   UNL     1     -23.296  -2.900   5.556  0.00  0.00    +0.000 HD
ENDBRANCH  18  24
BRANCH  18  28
ATOM     28  O   UNL     1     -20.711  -3.751   6.624  0.00  0.00    +0.000 OA
ATOM     29  H   UNL     1     -19.824  -3.605   6.994  0.00  0.00    +0.000 HD
ENDBRANCH  18  28
ENDBRANCH   1  18
TORSDOF 8
ENDMDL
MODEL 9
REMARK VINA RESULT:    -4.417     13.364     14.533
REMARK INTER + INTRA:          -6.290
REMARK INTER:                  -5.967
REMARK INTRA:                  -0.324
REMARK UNBOUND:                -0.324
REMARK  Name = 6549
REMARK  8 active torsions:
REMARK  status: ('A' for Active; 'I' for Inactive)
REMARK    1  A    between atoms: O_1  and  C_2
REMARK    2  A    between atoms: C_2  and  C_3
REMARK    3  A    between atoms: C_2  and  C_5
REMARK    4  A    between atoms: C_2  and  C_6
REMARK    5  A    between atoms: C_3  and  C_4
REMARK    6  A    between atoms: C_4  and  C_7
REMARK    7  A    between atoms: C_8  and  C_9
REMARK    8  A    between atoms: C_8  and  C_10
REMARK                            x       y       z     vdW  Elec       q    Type
REMARK                         _______ _______ _______ _____ _____    ______ ____
ROOT
ATOM      1  C   UNL     1      -2.871   8.127  -9.370  0.00  0.00    +0.000 C 
ATOM      2  H   UNL     1      -2.104   8.022  -8.589  0.00  0.00    +0.000 HD
ATOM      3  H   UNL     1      -3.654   8.744  -8.906  0.00  0.00    +0.000 HD
ENDROOT
BRANCH   1   4
ATOM      4  C   UNL     1      -3.441   6.746  -9.713  0.00  0.00    +0.000 C 
ATOM      5  H   UNL     1      -2.661   5.978  -9.703  0.00  0.00    +0.000 HD
ATOM      6  H   UNL     1      -3.839   6.745 -10.735  0.00  0.00    +0.000 HD
BRANCH   4   7
ATOM      7  C   UNL     1      -4.573   6.386  -8.792  0.00  0.00    +0.000 C 
ATOM      8  C   UNL     1      -5.841   6.083  -9.129  0.00  0.00    +0.000 C 
ATOM      9  H   UNL     1      -4.313   6.365  -7.734  0.00  0.00    +0.000 HD
BRANCH   8  10
ATOM     10  C   UNL     1      -6.931   5.729  -8.157  0.00  0.00    +0.000 C 
ATOM     11  H   UNL     1      -6.931   6.424  -7.312  0.00  0.00    +0.000 HD
ATOM     12  H   UNL     1      -6.785   4.713  -7.776  0.00  0.00    +0.000 HD
ATOM     13  H   UNL     1      -7.919   5.772  -8.626  0.00  0.00    +0.000 HD
ENDBRANCH   8  10
BRANCH   8  14
ATOM     14  C   UNL     1      -6.263   6.065 -10.574  0.00  0.00    +0.000 C 
ATOM     15  H   UNL     1      -5.589   6.693 -11.166  0.00  0.00    +0.000 HD
ATOM     16  H   UNL     1      -6.285   5.073 -11.030  0.00  0.00    +0.000 HD
ATOM     17  H   UNL     1      -7.277   6.471 -10.670  0.00  0.00    +0.000 HD
ENDBRANCH   8  14
ENDBRANCH   4   7
ENDBRANCH   1   4
BRANCH   1  18
ATOM     18  C   UNL     1      -2.270   8.905 -10.566  0.00  0.00    +0.000 C 
BRANCH  18  19
ATOM     19  C   UNL     1      -1.483   7.982 -11.472  0.00  0.00    +0.000 C 
ATOM     20  C   UNL     1      -1.144   8.189 -12.751  0.00  0.00    +0.000 C 
ATOM     21  H   UNL     1      -1.148   7.049 -11.021  0.00  0.00    +0.000 HD
ATOM     22  H   UNL     1      -0.569   7.443 -13.289  0.00  0.00    +0.000 HD
ATOM     23  H   UNL     1      -1.424   9.086 -13.289  0.00  0.00    +0.000 HD
ENDBRANCH  18  19
BRANCH  18  24
ATOM     24  C   UNL     1      -3.342   9.745 -11.271  0.00  0.00    +0.000 C 
ATOM     25  H   UNL     1      -3.054  10.803 -11.289  0.00  0.00    +0.000 HD
ATOM     26  H   UNL     1      -3.447   9.447 -12.322  0.00  0.00    +0.000 HD
ATOM     27  H   UNL     1      -4.322   9.666 -10.792  0.00  0.00    +0.000 HD
ENDBRANCH  18  24
BRANCH  18  28
ATOM     28  O   UNL     1      -1.335   9.852 -10.021  0.00  0.00    +0.000 OA
ATOM     29  H   UNL     1      -0.711  10.104 -10.722  0.00  0.00    +0.000 HD
ENDBRANCH  18  28
ENDBRANCH   1  18
TORSDOF 8
ENDMDL
MODEL 10
REMARK VINA RESULT:    -4.405     13.552     14.576
REMARK INTER + INTRA:          -6.273
REMARK INTER:                  -5.798
REMARK INTRA:                  -0.475
REMARK UNBOUND:                -0.324
REMARK  Name = 6549
REMARK  8 active torsions:
REMARK  status: ('A' for Active; 'I' for Inactive)
REMARK    1  A    between atoms: O_1  and  C_2
REMARK    2  A    between atoms: C_2  and  C_3
REMARK    3  A    between atoms: C_2  and  C_5
REMARK    4  A    between atoms: C_2  and  C_6
REMARK    5  A    between atoms: C_3  and  C_4
REMARK    6  A    between atoms: C_4  and  C_7
REMARK    7  A    between atoms: C_8  and  C_9
REMARK    8  A    between atoms: C_8  and  C_10
REMARK                            x       y       z     vdW  Elec       q    Type
REMARK                         _______ _______ _______ _____ _____    ______ ____
ROOT
ATOM      1  C   UNL     1      -1.289  10.090 -10.889  0.00  0.00    +0.000 C 
ATOM      2  H   UNL     1      -0.602   9.482 -10.282  0.00  0.00    +0.000 HD
ATOM      3  H   UNL     1      -0.932  11.122 -10.758  0.00  0.00    +0.000 HD
ENDROOT
BRANCH   1   4
ATOM      4  C   UNL     1      -2.710   9.964 -10.329  0.00  0.00    +0.000 C 
ATOM      5  H   UNL     1      -3.455   9.926 -11.131  0.00  0.00    +0.000 HD
ATOM      6  H   UNL     1      -2.964  10.853  -9.738  0.00  0.00    +0.000 HD
BRANCH   4   7
ATOM      7  C   UNL     1      -2.828   8.774  -9.419  0.00  0.00    +0.000 C 
ATOM      8  C   UNL     1      -3.363   7.571  -9.705  0.00  0.00    +0.000 C 
ATOM      9  H   UNL     1      -2.420   8.920  -8.420  0.00  0.00    +0.000 HD
BRANCH   8  10
ATOM     10  C   UNL     1      -3.451   6.416  -8.748  0.00  0.00    +0.000 C 
ATOM     11  H   UNL     1      -3.769   6.761  -7.760  0.00  0.00    +0.000 HD
ATOM     12  H   UNL     1      -2.476   5.928  -8.652  0.00  0.00    +0.000 HD
ATOM     13  H   UNL     1      -4.170   5.664  -9.089  0.00  0.00    +0.000 HD
ENDBRANCH   8  10
BRANCH   8  14
ATOM     14  C   UNL     1      -3.920   7.290 -11.075  0.00  0.00    +0.000 C 
ATOM     15  H   UNL     1      -4.963   6.966 -10.993  0.00  0.00    +0.000 HD
ATOM     16  H   UNL     1      -3.886   8.137 -11.764  0.00  0.00    +0.000 HD
ATOM     17  H   UNL     1      -3.350   6.483 -11.550  0.00  0.00    +0.000 HD
ENDBRANCH   8  14
ENDBRANCH   4   7
ENDBRANCH   1   4
BRANCH   1  18
ATOM     18  C   UNL     1      -1.133   9.696 -12.377  0.00  0.00    +0.000 C 
BRANCH  18  19
ATOM     19  C   UNL     1      -0.395  10.772 -13.147  0.00  0.00    +0.000 C 
ATOM     20  C   UNL     1      -0.868  11.528 -14.147  0.00  0.00    +0.000 C 
ATOM     21  H   UNL     1       0.633  10.953 -12.839  0.00  0.00    +0.000 HD
ATOM     22  H   UNL     1      -0.231  12.273 -14.612  0.00  0.00    +0.000 HD
ATOM     23  H   UNL     1      -1.878  11.431 -14.523  0.00  0.00    +0.000 HD
ENDBRANCH  18  19
BRANCH  18  24
ATOM     24  C   UNL     1      -0.548   8.285 -12.517  0.00  0.00    +0.000 C 
ATOM     25  H   UNL     1      -1.289   7.530 -12.231  0.00  0.00    +0.000 HD
ATOM     26  H   UNL     1      -0.288   8.069 -13.561  0.00  0.00    +0.000 HD
ATOM     27  H   UNL     1       0.345   8.137 -11.903  0.00  0.00    +0.000 HD
ENDBRANCH  18  24
BRANCH  18  28
ATOM     28  O   UNL     1      -2.458   9.620 -12.931  0.00  0.00    +0.000 OA
ATOM     29  H   UNL     1      -3.066  10.087 -12.333  0.00  0.00    +0.000 HD
ENDBRANCH  18  28
ENDBRANCH   1  18
TORSDOF 8
ENDMDL
