MODEL 1
REMARK VINA RESULT:    -6.168      0.000      0.000
REMARK INTER + INTRA:          -8.848
REMARK INTER:                  -8.468
REMARK INTRA:                  -0.380
REMARK UNBOUND:                -0.336
REMARK  Name = 91604
REMARK  8 active torsions:
REMARK  status: ('A' for Active; 'I' for Inactive)
REMARK    1  A    between atoms: O_1  and  C_11
REMARK    2  A    between atoms: C_3  and  C_7
REMARK    3  A    between atoms: C_4  and  C_15
REMARK    4  A    between atoms: C_7  and  C_8
REMARK    5  A    between atoms: C_8  and  C_10
REMARK    6  A    between atoms: C_10  and  C_11
REMARK    7  A    between atoms: C_11  and  C_13
REMARK    8  A    between atoms: C_11  and  C_14
REMARK                            x       y       z     vdW  Elec       q    Type
REMARK                         _______ _______ _______ _____ _____    ______ ____
ROOT
ATOM      1  C   UNL     1       6.487   7.585   3.782  0.00  0.00    +0.000 C 
ATOM      2  H   UNL     1       5.871   7.184   4.598  0.00  0.00    +0.000 HD
ATOM      3  H   UNL     1       7.119   6.756   3.439  0.00  0.00    +0.000 HD
ENDROOT
BRANCH   1   4
ATOM      4  C   UNL     1       5.636   8.055   2.640  0.00  0.00    +0.000 C 
ATOM      5  C   UNL     1       4.128   9.305   0.492  0.00  0.00    +0.000 C 
ATOM      6  C   UNL     1       6.373   8.519   1.411  0.00  0.00    +0.000 C 
ATOM      7  C   UNL     1       5.480   8.668   0.174  0.00  0.00    +0.000 C 
ATOM      8  C   UNL     1       3.398   8.561   1.614  0.00  0.00    +0.000 C 
ATOM      9  C   UNL     1       4.294   8.066   2.713  0.00  0.00    +0.000 C 
ATOM     10  H   UNL     1       3.500   9.292  -0.407  0.00  0.00    +0.000 HD
ATOM     11  H   UNL     1       6.844   9.488   1.618  0.00  0.00    +0.000 HD
ATOM     12  H   UNL     1       7.178   7.815   1.170  0.00  0.00    +0.000 HD
ATOM     13  H   UNL     1       6.015   9.248  -0.589  0.00  0.00    +0.000 HD
ATOM     14  H   UNL     1       5.305   7.672  -0.257  0.00  0.00    +0.000 HD
ATOM     15  H   UNL     1       2.898   7.682   1.185  0.00  0.00    +0.000 HD
ATOM     16  H   UNL     1       2.604   9.180   2.049  0.00  0.00    +0.000 HD
ATOM     17  H   UNL     1       3.799   7.707   3.612  0.00  0.00    +0.000 HD
BRANCH   5  19
ATOM     18  O   UNL     1       3.398  11.480   1.219  0.00  0.00    +0.000 OA
ATOM     19  C   UNL     1       4.312  10.756   0.837  0.00  0.00    +0.000 C 
ATOM     20  H   UNL     1       5.333  11.156   0.712  0.00  0.00    +0.000 HD
ENDBRANCH   5  19
ENDBRANCH   1   4
BRANCH   1  21
ATOM     21  C   UNL     1       7.381   8.703   4.326  0.00  0.00    +0.000 C 
ATOM     22  H   UNL     1       6.909   9.679   4.174  0.00  0.00    +0.000 HD
ATOM     23  H   UNL     1       8.303   8.707   3.734  0.00  0.00    +0.000 HD
BRANCH  21  24
ATOM     24  C   UNL     1       7.711   8.474   5.807  0.00  0.00    +0.000 C 
ATOM     25  H   UNL     1       6.825   8.122   6.348  0.00  0.00    +0.000 HD
ATOM     26  H   UNL     1       8.458   7.671   5.859  0.00  0.00    +0.000 HD
BRANCH  24  27
ATOM     27  C   UNL     1       8.268   9.713   6.536  0.00  0.00    +0.000 C 
BRANCH  27  28
ATOM     28  C   UNL     1       9.034   9.349   7.810  0.00  0.00    +0.000 C 
ATOM     29  H   UNL     1       8.381   9.346   8.690  0.00  0.00    +0.000 HD
ATOM     30  H   UNL     1       9.508   8.366   7.726  0.00  0.00    +0.000 HD
ATOM     31  H   UNL     1       9.812  10.092   8.019  0.00  0.00    +0.000 HD
ENDBRANCH  27  28
BRANCH  27  32
ATOM     32  C   UNL     1       9.178  10.501   5.588  0.00  0.00    +0.000 C 
ATOM     33  H   UNL     1       8.623  10.903   4.735  0.00  0.00    +0.000 HD
ATOM     34  H   UNL     1       9.988   9.867   5.208  0.00  0.00    +0.000 HD
ATOM     35  H   UNL     1       9.662  11.334   6.113  0.00  0.00    +0.000 HD
ENDBRANCH  27  32
BRANCH  27  36
ATOM     36  O   UNL     1       7.171  10.557   6.892  0.00  0.00    +0.000 OA
ATOM     37  H   UNL     1       7.229  11.376   6.372  0.00  0.00    +0.000 HD
ENDBRANCH  27  36
ENDBRANCH  24  27
ENDBRANCH  21  24
ENDBRANCH   1  21
TORSDOF 8
ENDMDL
MODEL 2
REMARK VINA RESULT:    -5.943      1.714      2.980
REMARK INTER + INTRA:          -8.538
REMARK INTER:                  -8.340
REMARK INTRA:                  -0.197
REMARK UNBOUND:                -0.336
REMARK  Name = 91604
REMARK  8 active torsions:
REMARK  status: ('A' for Active; 'I' for Inactive)
REMARK    1  A    between atoms: O_1  and  C_11
REMARK    2  A    between atoms: C_3  and  C_7
REMARK    3  A    between atoms: C_4  and  C_15
REMARK    4  A    between atoms: C_7  and  C_8
REMARK    5  A    between atoms: C_8  and  C_10
REMARK    6  A    between atoms: C_10  and  C_11
REMARK    7  A    between atoms: C_11  and  C_13
REMARK    8  A    between atoms: C_11  and  C_14
REMARK                            x       y       z     vdW  Elec       q    Type
REMARK                         _______ _______ _______ _____ _____    ______ ____
ROOT
ATOM      1  C   UNL     1       5.205   8.249   2.162  0.00  0.00    +0.000 C 
ATOM      2  H   UNL     1       4.695   8.331   3.130  0.00  0.00    +0.000 HD
ATOM      3  H   UNL     1       4.773   7.373   1.662  0.00  0.00    +0.000 HD
ENDROOT
BRANCH   1   4
ATOM      4  C   UNL     1       4.962   9.463   1.315  0.00  0.00    +0.000 C 
ATOM      5  C   UNL     1       4.258  11.602  -0.523  0.00  0.00    +0.000 C 
ATOM      6  C   UNL     1       3.581  10.058   1.391  0.00  0.00    +0.000 C 
ATOM      7  C   UNL     1       3.479  11.463   0.785  0.00  0.00    +0.000 C 
ATOM      8  C   UNL     1       5.720  11.174  -0.363  0.00  0.00    +0.000 C 
ATOM      9  C   UNL     1       5.921   9.984   0.532  0.00  0.00    +0.000 C 
ATOM     10  H   UNL     1       4.231  12.648  -0.852  0.00  0.00    +0.000 HD
ATOM     11  H   UNL     1       2.877   9.401   0.865  0.00  0.00    +0.000 HD
ATOM     12  H   UNL     1       3.253  10.112   2.435  0.00  0.00    +0.000 HD
ATOM     13  H   UNL     1       2.421  11.716   0.637  0.00  0.00    +0.000 HD
ATOM     14  H   UNL     1       3.876  12.189   1.507  0.00  0.00    +0.000 HD
ATOM     15  H   UNL     1       6.284  12.007   0.078  0.00  0.00    +0.000 HD
ATOM     16  H   UNL     1       6.184  10.974  -1.336  0.00  0.00    +0.000 HD
ATOM     17  H   UNL     1       6.911   9.535   0.518  0.00  0.00    +0.000 HD
BRANCH   5  19
ATOM     18  O   UNL     1       2.691  11.273  -2.320  0.00  0.00    +0.000 OA
ATOM     19  C   UNL     1       3.582  10.816  -1.611  0.00  0.00    +0.000 C 
ATOM     20  H   UNL     1       3.922   9.774  -1.735  0.00  0.00    +0.000 HD
ENDBRANCH   5  19
ENDBRANCH   1   4
BRANCH   1  21
ATOM     21  C   UNL     1       6.698   8.006   2.396  0.00  0.00    +0.000 C 
ATOM     22  H   UNL     1       7.266   8.187   1.477  0.00  0.00    +0.000 HD
ATOM     23  H   UNL     1       6.827   6.945   2.637  0.00  0.00    +0.000 HD
BRANCH  21  24
ATOM     24  C   UNL     1       7.224   8.871   3.549  0.00  0.00    +0.000 C 
ATOM     25  H   UNL     1       8.318   8.929   3.519  0.00  0.00    +0.000 HD
ATOM     26  H   UNL     1       6.845   9.890   3.398  0.00  0.00    +0.000 HD
BRANCH  24  27
ATOM     27  C   UNL     1       6.801   8.392   4.952  0.00  0.00    +0.000 C 
BRANCH  27  28
ATOM     28  C   UNL     1       6.489   6.894   4.992  0.00  0.00    +0.000 C 
ATOM     29  H   UNL     1       5.687   6.664   5.702  0.00  0.00    +0.000 HD
ATOM     30  H   UNL     1       6.198   6.519   4.006  0.00  0.00    +0.000 HD
ATOM     31  H   UNL     1       7.362   6.327   5.334  0.00  0.00    +0.000 HD
ENDBRANCH  27  28
BRANCH  27  32
ATOM     32  C   UNL     1       7.905   8.721   5.962  0.00  0.00    +0.000 C 
ATOM     33  H   UNL     1       7.685   8.308   6.952  0.00  0.00    +0.000 HD
ATOM     34  H   UNL     1       8.032   9.806   6.060  0.00  0.00    +0.000 HD
ATOM     35  H   UNL     1       8.872   8.328   5.627  0.00  0.00    +0.000 HD
ENDBRANCH  27  32
BRANCH  27  36
ATOM     36  O   UNL     1       5.626   9.109   5.338  0.00  0.00    +0.000 OA
ATOM     37  H   UNL     1       5.080   8.531   5.897  0.00  0.00    +0.000 HD
ENDBRANCH  27  36
ENDBRANCH  24  27
ENDBRANCH  21  24
ENDBRANCH   1  21
TORSDOF 8
ENDMDL
MODEL 3
REMARK VINA RESULT:    -5.766     28.493     29.831
REMARK INTER + INTRA:          -8.293
REMARK INTER:                  -7.629
REMARK INTRA:                  -0.664
REMARK UNBOUND:                -0.336
REMARK  Name = 91604
REMARK  8 active torsions:
REMARK  status: ('A' for Active; 'I' for Inactive)
REMARK    1  A    between atoms: O_1  and  C_11
REMARK    2  A    between atoms: C_3  and  C_7
REMARK    3  A    between atoms: C_4  and  C_15
REMARK    4  A    between atoms: C_7  and  C_8
REMARK    5  A    between atoms: C_8  and  C_10
REMARK    6  A    between atoms: C_10  and  C_11
REMARK    7  A    between atoms: C_11  and  C_13
REMARK    8  A    between atoms: C_11  and  C_14
REMARK                            x       y       z     vdW  Elec       q    Type
REMARK                         _______ _______ _______ _____ _____    ______ ____
ROOT
ATOM      1  C   UNL     1     -21.743  -2.506   3.221  0.00  0.00    +0.000 C 
ATOM      2  H   UNL     1     -22.833  -2.449   3.111  0.00  0.00    +0.000 HD
ATOM      3  H   UNL     1     -21.322  -1.813   2.482  0.00  0.00    +0.000 HD
ENDROOT
BRANCH   1   4
ATOM      4  C   UNL     1     -21.312  -2.077   4.592  0.00  0.00    +0.000 C 
ATOM      5  C   UNL     1     -20.841  -1.250   7.339  0.00  0.00    +0.000 C 
ATOM      6  C   UNL     1     -21.522  -3.079   5.697  0.00  0.00    +0.000 C 
ATOM      7  C   UNL     1     -20.775  -2.737   6.992  0.00  0.00    +0.000 C 
ATOM      8  C   UNL     1     -20.365  -0.372   6.178  0.00  0.00    +0.000 C 
ATOM      9  C   UNL     1     -20.776  -0.866   4.821  0.00  0.00    +0.000 C 
ATOM     10  H   UNL     1     -20.208  -1.053   8.213  0.00  0.00    +0.000 HD
ATOM     11  H   UNL     1     -22.594  -3.147   5.922  0.00  0.00    +0.000 HD
ATOM     12  H   UNL     1     -21.198  -4.072   5.367  0.00  0.00    +0.000 HD
ATOM     13  H   UNL     1     -21.175  -3.347   7.811  0.00  0.00    +0.000 HD
ATOM     14  H   UNL     1     -19.720  -3.022   6.876  0.00  0.00    +0.000 HD
ATOM     15  H   UNL     1     -19.267  -0.340   6.189  0.00  0.00    +0.000 HD
ATOM     16  H   UNL     1     -20.700   0.664   6.300  0.00  0.00    +0.000 HD
ATOM     17  H   UNL     1     -20.626  -0.177   3.993  0.00  0.00    +0.000 HD
BRANCH   5  19
ATOM     18  O   UNL     1     -22.530  -0.531   8.896  0.00  0.00    +0.000 OA
ATOM     19  C   UNL     1     -22.236  -0.881   7.757  0.00  0.00    +0.000 C 
ATOM     20  H   UNL     1     -23.011  -0.958   6.974  0.00  0.00    +0.000 HD
ENDBRANCH   5  19
ENDBRANCH   1   4
BRANCH   1  21
ATOM     21  C   UNL     1     -21.276  -3.928   2.896  0.00  0.00    +0.000 C 
ATOM     22  H   UNL     1     -21.955  -4.401   2.179  0.00  0.00    +0.000 HD
ATOM     23  H   UNL     1     -21.338  -4.516   3.818  0.00  0.00    +0.000 HD
BRANCH  21  24
ATOM     24  C   UNL     1     -19.833  -3.928   2.372  0.00  0.00    +0.000 C 
ATOM     25  H   UNL     1     -19.822  -3.876   1.277  0.00  0.00    +0.000 HD
ATOM     26  H   UNL     1     -19.346  -3.016   2.741  0.00  0.00    +0.000 HD
BRANCH  24  27
ATOM     27  C   UNL     1     -18.994  -5.145   2.810  0.00  0.00    +0.000 C 
BRANCH  27  28
ATOM     28  C   UNL     1     -19.080  -5.406   4.315  0.00  0.00    +0.000 C 
ATOM     29  H   UNL     1     -19.045  -4.476   4.892  0.00  0.00    +0.000 HD
ATOM     30  H   UNL     1     -19.997  -5.944   4.577  0.00  0.00    +0.000 HD
ATOM     31  H   UNL     1     -18.223  -5.999   4.653  0.00  0.00    +0.000 HD
ENDBRANCH  27  28
BRANCH  27  32
ATOM     32  C   UNL     1     -19.451  -6.388   2.038  0.00  0.00    +0.000 C 
ATOM     33  H   UNL     1     -19.066  -7.308   2.489  0.00  0.00    +0.000 HD
ATOM     34  H   UNL     1     -19.113  -6.345   0.995  0.00  0.00    +0.000 HD
ATOM     35  H   UNL     1     -20.545  -6.447   2.004  0.00  0.00    +0.000 HD
ENDBRANCH  27  32
BRANCH  27  36
ATOM     36  O   UNL     1     -17.629  -4.896   2.470  0.00  0.00    +0.000 OA
ATOM     37  H   UNL     1     -17.067  -5.198   3.204  0.00  0.00    +0.000 HD
ENDBRANCH  27  36
ENDBRANCH  24  27
ENDBRANCH  21  24
ENDBRANCH   1  21
TORSDOF 8
ENDMDL
MODEL 4
REMARK VINA RESULT:    -5.602     16.232     17.663
REMARK INTER + INTRA:          -8.067
REMARK INTER:                  -7.713
REMARK INTRA:                  -0.353
REMARK UNBOUND:                -0.336
REMARK  Name = 91604
REMARK  8 active torsions:
REMARK  status: ('A' for Active; 'I' for Inactive)
REMARK    1  A    between atoms: O_1  and  C_11
REMARK    2  A    between atoms: C_3  and  C_7
REMARK    3  A    between atoms: C_4  and  C_15
REMARK    4  A    between atoms: C_7  and  C_8
REMARK    5  A    between atoms: C_8  and  C_10
REMARK    6  A    between atoms: C_10  and  C_11
REMARK    7  A    between atoms: C_11  and  C_13
REMARK    8  A    between atoms: C_11  and  C_14
REMARK                            x       y       z     vdW  Elec       q    Type
REMARK                         _______ _______ _______ _____ _____    ______ ____
ROOT
ATOM      1  C   UNL     1      -3.892   6.451  -8.759  0.00  0.00    +0.000 C 
ATOM      2  H   UNL     1      -3.445   5.464  -8.586  0.00  0.00    +0.000 HD
ATOM      3  H   UNL     1      -3.921   6.950  -7.782  0.00  0.00    +0.000 HD
ENDROOT
BRANCH   1   4
ATOM      4  C   UNL     1      -3.057   7.268  -9.700  0.00  0.00    +0.000 C 
ATOM      5  C   UNL     1      -1.757   9.018 -11.623  0.00  0.00    +0.000 C 
ATOM      6  C   UNL     1      -2.954   8.738  -9.388  0.00  0.00    +0.000 C 
ATOM      7  C   UNL     1      -1.842   9.458 -10.161  0.00  0.00    +0.000 C 
ATOM      8  C   UNL     1      -1.626   7.498 -11.753  0.00  0.00    +0.000 C 
ATOM      9  C   UNL     1      -2.442   6.720 -10.761  0.00  0.00    +0.000 C 
ATOM     10  H   UNL     1      -0.885   9.488 -12.093  0.00  0.00    +0.000 HD
ATOM     11  H   UNL     1      -3.910   9.223  -9.622  0.00  0.00    +0.000 HD
ATOM     12  H   UNL     1      -2.774   8.882  -8.317  0.00  0.00    +0.000 HD
ATOM     13  H   UNL     1      -1.995  10.542 -10.088  0.00  0.00    +0.000 HD
ATOM     14  H   UNL     1      -0.880   9.245  -9.676  0.00  0.00    +0.000 HD
ATOM     15  H   UNL     1      -0.575   7.221 -11.594  0.00  0.00    +0.000 HD
ATOM     16  H   UNL     1      -1.879   7.163 -12.767  0.00  0.00    +0.000 HD
ATOM     17  H   UNL     1      -2.527   5.651 -10.942  0.00  0.00    +0.000 HD
BRANCH   5  19
ATOM     18  O   UNL     1      -2.871  10.322 -13.312  0.00  0.00    +0.000 OA
ATOM     19  C   UNL     1      -2.950   9.524 -12.383  0.00  0.00    +0.000 C 
ATOM     20  H   UNL     1      -3.932   9.148 -12.046  0.00  0.00    +0.000 HD
ENDBRANCH   5  19
ENDBRANCH   1   4
BRANCH   1  21
ATOM     21  C   UNL     1      -5.324   6.275  -9.273  0.00  0.00    +0.000 C 
ATOM     22  H   UNL     1      -5.323   6.081 -10.351  0.00  0.00    +0.000 HD
ATOM     23  H   UNL     1      -5.847   7.226  -9.128  0.00  0.00    +0.000 HD
BRANCH  21  24
ATOM     24  C   UNL     1      -6.049   5.158  -8.512  0.00  0.00    +0.000 C 
ATOM     25  H   UNL     1      -6.242   4.304  -9.172  0.00  0.00    +0.000 HD
ATOM     26  H   UNL     1      -5.376   4.805  -7.720  0.00  0.00    +0.000 HD
BRANCH  24  27
ATOM     27  C   UNL     1      -7.384   5.586  -7.868  0.00  0.00    +0.000 C 
BRANCH  27  28
ATOM     28  C   UNL     1      -8.282   6.358  -8.836  0.00  0.00    +0.000 C 
ATOM     29  H   UNL     1      -8.062   7.430  -8.828  0.00  0.00    +0.000 HD
ATOM     30  H   UNL     1      -8.177   5.989  -9.862  0.00  0.00    +0.000 HD
ATOM     31  H   UNL     1      -9.334   6.267  -8.543  0.00  0.00    +0.000 HD
ENDBRANCH  27  28
BRANCH  27  32
ATOM     32  C   UNL     1      -8.122   4.348  -7.346  0.00  0.00    +0.000 C 
ATOM     33  H   UNL     1      -8.528   3.744  -8.163  0.00  0.00    +0.000 HD
ATOM     34  H   UNL     1      -8.947   4.637  -6.684  0.00  0.00    +0.000 HD
ATOM     35  H   UNL     1      -7.454   3.719  -6.746  0.00  0.00    +0.000 HD
ENDBRANCH  27  32
BRANCH  27  36
ATOM     36  O   UNL     1      -7.094   6.427  -6.749  0.00  0.00    +0.000 OA
ATOM     37  H   UNL     1      -7.344   5.957  -5.935  0.00  0.00    +0.000 HD
ENDBRANCH  27  36
ENDBRANCH  24  27
ENDBRANCH  21  24
ENDBRANCH   1  21
TORSDOF 8
ENDMDL
MODEL 5
REMARK VINA RESULT:    -5.512      1.703      2.320
REMARK INTER + INTRA:          -7.943
REMARK INTER:                  -7.340
REMARK INTRA:                  -0.603
REMARK UNBOUND:                -0.336
REMARK  Name = 91604
REMARK  8 active torsions:
REMARK  status: ('A' for Active; 'I' for Inactive)
REMARK    1  A    between atoms: O_1  and  C_11
REMARK    2  A    between atoms: C_3  and  C_7
REMARK    3  A    between atoms: C_4  and  C_15
REMARK    4  A    between atoms: C_7  and  C_8
REMARK    5  A    between atoms: C_8  and  C_10
REMARK    6  A    between atoms: C_10  and  C_11
REMARK    7  A    between atoms: C_11  and  C_13
REMARK    8  A    between atoms: C_11  and  C_14
REMARK                            x       y       z     vdW  Elec       q    Type
REMARK                         _______ _______ _______ _____ _____    ______ ____
ROOT
ATOM      1  C   UNL     1       4.349   7.879   2.929  0.00  0.00    +0.000 C 
ATOM      2  H   UNL     1       4.040   8.314   3.888  0.00  0.00    +0.000 HD
ATOM      3  H   UNL     1       3.625   7.086   2.704  0.00  0.00    +0.000 HD
ENDROOT
BRANCH   1   4
ATOM      4  C   UNL     1       4.310   8.902   1.832  0.00  0.00    +0.000 C 
ATOM      5  C   UNL     1       4.588  10.959  -0.203  0.00  0.00    +0.000 C 
ATOM      6  C   UNL     1       5.183   8.625   0.637  0.00  0.00    +0.000 C 
ATOM      7  C   UNL     1       4.863   9.503  -0.579  0.00  0.00    +0.000 C 
ATOM      8  C   UNL     1       3.496  11.074   0.865  0.00  0.00    +0.000 C 
ATOM      9  C   UNL     1       3.543  10.002   1.916  0.00  0.00    +0.000 C 
ATOM     10  H   UNL     1       4.267  11.510  -1.096  0.00  0.00    +0.000 HD
ATOM     11  H   UNL     1       6.233   8.785   0.914  0.00  0.00    +0.000 HD
ATOM     12  H   UNL     1       5.085   7.576   0.336  0.00  0.00    +0.000 HD
ATOM     13  H   UNL     1       5.688   9.436  -1.300  0.00  0.00    +0.000 HD
ATOM     14  H   UNL     1       3.974   9.098  -1.082  0.00  0.00    +0.000 HD
ATOM     15  H   UNL     1       2.515  11.001   0.374  0.00  0.00    +0.000 HD
ATOM     16  H   UNL     1       3.519  12.056   1.352  0.00  0.00    +0.000 HD
ATOM     17  H   UNL     1       2.914  10.157   2.788  0.00  0.00    +0.000 HD
BRANCH   5  19
ATOM     18  O   UNL     1       6.896  11.609  -0.403  0.00  0.00    +0.000 OA
ATOM     19  C   UNL     1       5.857  11.622   0.250  0.00  0.00    +0.000 C 
ATOM     20  H   UNL     1       5.816  12.121   1.233  0.00  0.00    +0.000 HD
ENDBRANCH   5  19
ENDBRANCH   1   4
BRANCH   1  21
ATOM     21  C   UNL     1       5.740   7.258   3.080  0.00  0.00    +0.000 C 
ATOM     22  H   UNL     1       6.477   7.820   2.497  0.00  0.00    +0.000 HD
ATOM     23  H   UNL     1       5.702   6.252   2.648  0.00  0.00    +0.000 HD
BRANCH  21  24
ATOM     24  C   UNL     1       6.150   7.177   4.557  0.00  0.00    +0.000 C 
ATOM     25  H   UNL     1       5.268   7.044   5.194  0.00  0.00    +0.000 HD
ATOM     26  H   UNL     1       6.771   6.280   4.680  0.00  0.00    +0.000 HD
BRANCH  24  27
ATOM     27  C   UNL     1       6.941   8.397   5.069  0.00  0.00    +0.000 C 
BRANCH  27  28
ATOM     28  C   UNL     1       7.917   8.035   6.191  0.00  0.00    +0.000 C 
ATOM     29  H   UNL     1       8.685   8.804   6.325  0.00  0.00    +0.000 HD
ATOM     30  H   UNL     1       7.397   7.893   7.144  0.00  0.00    +0.000 HD
ATOM     31  H   UNL     1       8.457   7.112   5.950  0.00  0.00    +0.000 HD
ENDBRANCH  27  28
BRANCH  27  32
ATOM     32  C   UNL     1       7.701   9.042   3.904  0.00  0.00    +0.000 C 
ATOM     33  H   UNL     1       7.551  10.126   3.874  0.00  0.00    +0.000 HD
ATOM     34  H   UNL     1       7.376   8.619   2.946  0.00  0.00    +0.000 HD
ATOM     35  H   UNL     1       8.776   8.840   3.980  0.00  0.00    +0.000 HD
ENDBRANCH  27  32
BRANCH  27  36
ATOM     36  O   UNL     1       6.011   9.359   5.570  0.00  0.00    +0.000 OA
ATOM     37  H   UNL     1       6.236   9.555   6.496  0.00  0.00    +0.000 HD
ENDBRANCH  27  36
ENDBRANCH  24  27
ENDBRANCH  21  24
ENDBRANCH   1  21
TORSDOF 8
ENDMDL
MODEL 6
REMARK VINA RESULT:    -5.489     28.786     30.145
REMARK INTER + INTRA:          -7.911
REMARK INTER:                  -7.247
REMARK INTRA:                  -0.664
REMARK UNBOUND:                -0.336
REMARK  Name = 91604
REMARK  8 active torsions:
REMARK  status: ('A' for Active; 'I' for Inactive)
REMARK    1  A    between atoms: O_1  and  C_11
REMARK    2  A    between atoms: C_3  and  C_7
REMARK    3  A    between atoms: C_4  and  C_15
REMARK    4  A    between atoms: C_7  and  C_8
REMARK    5  A    between atoms: C_8  and  C_10
REMARK    6  A    between atoms: C_10  and  C_11
REMARK    7  A    between atoms: C_11  and  C_13
REMARK    8  A    between atoms: C_11  and  C_14
REMARK                            x       y       z     vdW  Elec       q    Type
REMARK                         _______ _______ _______ _____ _____    ______ ____
ROOT
ATOM      1  C   UNL     1     -20.458  -0.687   5.824  0.00  0.00    +0.000 C 
ATOM      2  H   UNL     1     -19.497  -0.220   5.572  0.00  0.00    +0.000 HD
ATOM      3  H   UNL     1     -21.220   0.091   5.694  0.00  0.00    +0.000 HD
ENDROOT
BRANCH   1   4
ATOM      4  C   UNL     1     -20.765  -1.829   4.901  0.00  0.00    +0.000 C 
ATOM      5  C   UNL     1     -20.995  -4.124   3.132  0.00  0.00    +0.000 C 
ATOM      6  C   UNL     1     -20.610  -3.211   5.482  0.00  0.00    +0.000 C 
ATOM      7  C   UNL     1     -21.245  -4.314   4.628  0.00  0.00    +0.000 C 
ATOM      8  C   UNL     1     -21.431  -2.736   2.654  0.00  0.00    +0.000 C 
ATOM      9  C   UNL     1     -21.149  -1.630   3.629  0.00  0.00    +0.000 C 
ATOM     10  H   UNL     1     -21.555  -4.882   2.571  0.00  0.00    +0.000 HD
ATOM     11  H   UNL     1     -19.542  -3.434   5.600  0.00  0.00    +0.000 HD
ATOM     12  H   UNL     1     -21.060  -3.249   6.480  0.00  0.00    +0.000 HD
ATOM     13  H   UNL     1     -20.872  -5.290   4.965  0.00  0.00    +0.000 HD
ATOM     14  H   UNL     1     -22.330  -4.317   4.804  0.00  0.00    +0.000 HD
ATOM     15  H   UNL     1     -22.517  -2.748   2.486  0.00  0.00    +0.000 HD
ATOM     16  H   UNL     1     -20.976  -2.488   1.688  0.00  0.00    +0.000 HD
ATOM     17  H   UNL     1     -21.265  -0.616   3.253  0.00  0.00    +0.000 HD
BRANCH   5  19
ATOM     18  O   UNL     1     -18.869  -5.222   3.385  0.00  0.00    +0.000 OA
ATOM     19  C   UNL     1     -19.548  -4.373   2.816  0.00  0.00    +0.000 C 
ATOM     20  H   UNL     1     -19.105  -3.726   2.039  0.00  0.00    +0.000 HD
ENDBRANCH   5  19
ENDBRANCH   1   4
BRANCH   1  21
ATOM     21  C   UNL     1     -20.437  -1.128   7.290  0.00  0.00    +0.000 C 
ATOM     22  H   UNL     1     -19.469  -0.899   7.747  0.00  0.00    +0.000 HD
ATOM     23  H   UNL     1     -20.540  -2.219   7.309  0.00  0.00    +0.000 HD
BRANCH  21  24
ATOM     24  C   UNL     1     -21.585  -0.481   8.077  0.00  0.00    +0.000 C 
ATOM     25  H   UNL     1     -21.221  -0.085   9.032  0.00  0.00    +0.000 HD
ATOM     26  H   UNL     1     -21.946   0.375   7.492  0.00  0.00    +0.000 HD
BRANCH  24  27
ATOM     27  C   UNL     1     -22.774  -1.420   8.361  0.00  0.00    +0.000 C 
BRANCH  27  28
ATOM     28  C   UNL     1     -23.647  -0.930   9.518  0.00  0.00    +0.000 C 
ATOM     29  H   UNL     1     -23.459   0.124   9.750  0.00  0.00    +0.000 HD
ATOM     30  H   UNL     1     -24.712  -1.053   9.298  0.00  0.00    +0.000 HD
ATOM     31  H   UNL     1     -23.417  -1.483  10.436  0.00  0.00    +0.000 HD
ENDBRANCH  27  28
BRANCH  27  32
ATOM     32  C   UNL     1     -23.624  -1.570   7.094  0.00  0.00    +0.000 C 
ATOM     33  H   UNL     1     -23.308  -2.429   6.494  0.00  0.00    +0.000 HD
ATOM     34  H   UNL     1     -23.559  -0.669   6.472  0.00  0.00    +0.000 HD
ATOM     35  H   UNL     1     -24.684  -1.692   7.346  0.00  0.00    +0.000 HD
ENDBRANCH  27  32
BRANCH  27  36
ATOM     36  O   UNL     1     -22.259  -2.710   8.697  0.00  0.00    +0.000 OA
ATOM     37  H   UNL     1     -21.695  -2.623   9.485  0.00  0.00    +0.000 HD
ENDBRANCH  27  36
ENDBRANCH  24  27
ENDBRANCH  21  24
ENDBRANCH   1  21
TORSDOF 8
ENDMDL
MODEL 7
REMARK VINA RESULT:    -5.432     18.964     20.342
REMARK INTER + INTRA:          -7.833
REMARK INTER:                  -7.472
REMARK INTRA:                  -0.361
REMARK UNBOUND:                -0.336
REMARK  Name = 91604
REMARK  8 active torsions:
REMARK  status: ('A' for Active; 'I' for Inactive)
REMARK    1  A    between atoms: O_1  and  C_11
REMARK    2  A    between atoms: C_3  and  C_7
REMARK    3  A    between atoms: C_4  and  C_15
REMARK    4  A    between atoms: C_7  and  C_8
REMARK    5  A    between atoms: C_8  and  C_10
REMARK    6  A    between atoms: C_10  and  C_11
REMARK    7  A    between atoms: C_11  and  C_13
REMARK    8  A    between atoms: C_11  and  C_14
REMARK                            x       y       z     vdW  Elec       q    Type
REMARK                         _______ _______ _______ _____ _____    ______ ____
ROOT
ATOM      1  C   UNL     1      -1.172  -0.165 -13.094  0.00  0.00    +0.000 C 
ATOM      2  H   UNL     1      -1.220  -0.962 -13.847  0.00  0.00    +0.000 HD
ATOM      3  H   UNL     1      -1.390   0.771 -13.623  0.00  0.00    +0.000 HD
ENDROOT
BRANCH   1   4
ATOM      4  C   UNL     1      -2.201  -0.370 -12.021  0.00  0.00    +0.000 C 
ATOM      5  C   UNL     1      -4.054  -1.111  -9.908  0.00  0.00    +0.000 C 
ATOM      6  C   UNL     1      -1.675  -0.532 -10.619  0.00  0.00    +0.000 C 
ATOM      7  C   UNL     1      -2.752  -0.403  -9.536  0.00  0.00    +0.000 C 
ATOM      8  C   UNL     1      -4.583  -0.653 -11.270  0.00  0.00    +0.000 C 
ATOM      9  C   UNL     1      -3.516  -0.412 -12.298  0.00  0.00    +0.000 C 
ATOM     10  H   UNL     1      -4.813  -0.899  -9.145  0.00  0.00    +0.000 HD
ATOM     11  H   UNL     1      -1.202  -1.518 -10.524  0.00  0.00    +0.000 HD
ATOM     12  H   UNL     1      -0.899   0.217 -10.422  0.00  0.00    +0.000 HD
ATOM     13  H   UNL     1      -2.356  -0.787  -8.587  0.00  0.00    +0.000 HD
ATOM     14  H   UNL     1      -2.966   0.663  -9.377  0.00  0.00    +0.000 HD
ATOM     15  H   UNL     1      -5.121   0.296 -11.136  0.00  0.00    +0.000 HD
ATOM     16  H   UNL     1      -5.315  -1.363 -11.671  0.00  0.00    +0.000 HD
ATOM     17  H   UNL     1      -3.856  -0.275 -13.321  0.00  0.00    +0.000 HD
BRANCH   5  19
ATOM     18  O   UNL     1      -4.421  -3.372 -10.649  0.00  0.00    +0.000 OA
ATOM     19  C   UNL     1      -3.856  -2.600  -9.880  0.00  0.00    +0.000 C 
ATOM     20  H   UNL     1      -3.172  -2.982  -9.101  0.00  0.00    +0.000 HD
ENDBRANCH   5  19
ENDBRANCH   1   4
BRANCH   1  21
ATOM     21  C   UNL     1       0.245  -0.097 -12.519  0.00  0.00    +0.000 C 
ATOM     22  H   UNL     1       0.762  -1.052 -12.657  0.00  0.00    +0.000 HD
ATOM     23  H   UNL     1       0.156   0.056 -11.437  0.00  0.00    +0.000 HD
BRANCH  21  24
ATOM     24  C   UNL     1       1.039   1.057 -13.146  0.00  0.00    +0.000 C 
ATOM     25  H   UNL     1       0.361   1.779 -13.616  0.00  0.00    +0.000 HD
ATOM     26  H   UNL     1       1.554   1.585 -12.333  0.00  0.00    +0.000 HD
BRANCH  24  27
ATOM     27  C   UNL     1       2.085   0.620 -14.190  0.00  0.00    +0.000 C 
BRANCH  27  28
ATOM     28  C   UNL     1       3.092  -0.385 -13.627  0.00  0.00    +0.000 C 
ATOM     29  H   UNL     1       2.811  -0.724 -12.624  0.00  0.00    +0.000 HD
ATOM     30  H   UNL     1       3.190  -1.262 -14.275  0.00  0.00    +0.000 HD
ATOM     31  H   UNL     1       4.080   0.076 -13.519  0.00  0.00    +0.000 HD
ENDBRANCH  27  28
BRANCH  27  32
ATOM     32  C   UNL     1       1.376   0.020 -15.409  0.00  0.00    +0.000 C 
ATOM     33  H   UNL     1       1.647   0.542 -16.332  0.00  0.00    +0.000 HD
ATOM     34  H   UNL     1       0.287   0.070 -15.289  0.00  0.00    +0.000 HD
ATOM     35  H   UNL     1       1.623  -1.042 -15.522  0.00  0.00    +0.000 HD
ENDBRANCH  27  32
BRANCH  27  36
ATOM     36  O   UNL     1       2.799   1.779 -14.625  0.00  0.00    +0.000 OA
ATOM     37  H   UNL     1       2.387   2.108 -15.442  0.00  0.00    +0.000 HD
ENDBRANCH  27  36
ENDBRANCH  24  27
ENDBRANCH  21  24
ENDBRANCH   1  21
TORSDOF 8
ENDMDL
MODEL 8
REMARK VINA RESULT:    -5.423     14.214     15.420
REMARK INTER + INTRA:          -7.820
REMARK INTER:                  -7.006
REMARK INTRA:                  -0.813
REMARK UNBOUND:                -0.336
REMARK  Name = 91604
REMARK  8 active torsions:
REMARK  status: ('A' for Active; 'I' for Inactive)
REMARK    1  A    between atoms: O_1  and  C_11
REMARK    2  A    between atoms: C_3  and  C_7
REMARK    3  A    between atoms: C_4  and  C_15
REMARK    4  A    between atoms: C_7  and  C_8
REMARK    5  A    between atoms: C_8  and  C_10
REMARK    6  A    between atoms: C_10  and  C_11
REMARK    7  A    between atoms: C_11  and  C_13
REMARK    8  A    between atoms: C_11  and  C_14
REMARK                            x       y       z     vdW  Elec       q    Type
REMARK                         _______ _______ _______ _____ _____    ______ ____
ROOT
ATOM      1  C   UNL     1      -7.776  12.355   8.886  0.00  0.00    +0.000 C 
ATOM      2  H   UNL     1      -7.276  13.252   9.273  0.00  0.00    +0.000 HD
ATOM      3  H   UNL     1      -8.834  12.450   9.162  0.00  0.00    +0.000 HD
ENDROOT
BRANCH   1   4
ATOM      4  C   UNL     1      -7.667  12.274   7.392  0.00  0.00    +0.000 C 
ATOM      5  C   UNL     1      -7.681  12.415   4.489  0.00  0.00    +0.000 C 
ATOM      6  C   UNL     1      -6.946  13.412   6.718  0.00  0.00    +0.000 C 
ATOM      7  C   UNL     1      -6.570  13.128   5.259  0.00  0.00    +0.000 C 
ATOM      8  C   UNL     1      -8.139  11.138   5.200  0.00  0.00    +0.000 C 
ATOM      9  C   UNL     1      -8.187  11.249   6.697  0.00  0.00    +0.000 C 
ATOM     10  H   UNL     1      -7.318  12.150   3.489  0.00  0.00    +0.000 HD
ATOM     11  H   UNL     1      -7.581  14.306   6.745  0.00  0.00    +0.000 HD
ATOM     12  H   UNL     1      -6.029  13.652   7.267  0.00  0.00    +0.000 HD
ATOM     13  H   UNL     1      -6.296  14.069   4.767  0.00  0.00    +0.000 HD
ATOM     14  H   UNL     1      -5.672  12.494   5.243  0.00  0.00    +0.000 HD
ATOM     15  H   UNL     1      -7.435  10.330   4.960  0.00  0.00    +0.000 HD
ATOM     16  H   UNL     1      -9.118  10.808   4.833  0.00  0.00    +0.000 HD
ATOM     17  H   UNL     1      -8.686  10.438   7.223  0.00  0.00    +0.000 HD
BRANCH   5  19
ATOM     18  O   UNL     1      -9.998  12.976   4.153  0.00  0.00    +0.000 OA
ATOM     19  C   UNL     1      -8.835  13.351   4.266  0.00  0.00    +0.000 C 
ATOM     20  H   UNL     1      -8.579  14.422   4.189  0.00  0.00    +0.000 HD
ENDBRANCH   5  19
ENDBRANCH   1   4
BRANCH   1  21
ATOM     21  C   UNL     1      -7.191  11.116   9.569  0.00  0.00    +0.000 C 
ATOM     22  H   UNL     1      -6.267  11.370  10.100  0.00  0.00    +0.000 HD
ATOM     23  H   UNL     1      -6.912  10.405   8.783  0.00  0.00    +0.000 HD
BRANCH  21  24
ATOM     24  C   UNL     1      -8.213  10.473  10.516  0.00  0.00    +0.000 C 
ATOM     25  H   UNL     1      -7.755  10.260  11.489  0.00  0.00    +0.000 HD
ATOM     26  H   UNL     1      -9.010  11.208  10.692  0.00  0.00    +0.000 HD
BRANCH  24  27
ATOM     27  C   UNL     1      -8.851   9.175   9.982  0.00  0.00    +0.000 C 
BRANCH  27  28
ATOM     28  C   UNL     1     -10.160   9.429   9.233  0.00  0.00    +0.000 C 
ATOM     29  H   UNL     1      -9.985   9.691   8.185  0.00  0.00    +0.000 HD
ATOM     30  H   UNL     1     -10.818   8.555   9.268  0.00  0.00    +0.000 HD
ATOM     31  H   UNL     1     -10.695  10.281   9.668  0.00  0.00    +0.000 HD
ENDBRANCH  27  28
BRANCH  27  32
ATOM     32  C   UNL     1      -7.857   8.454   9.066  0.00  0.00    +0.000 C 
ATOM     33  H   UNL     1      -6.862   8.389   9.519  0.00  0.00    +0.000 HD
ATOM     34  H   UNL     1      -7.767   8.972   8.104  0.00  0.00    +0.000 HD
ATOM     35  H   UNL     1      -8.202   7.439   8.836  0.00  0.00    +0.000 HD
ENDBRANCH  27  32
BRANCH  27  36
ATOM     36  O   UNL     1      -9.123   8.318  11.093  0.00  0.00    +0.000 OA
ATOM     37  H   UNL     1      -9.161   8.859  11.900  0.00  0.00    +0.000 HD
ENDBRANCH  27  36
ENDBRANCH  24  27
ENDBRANCH  21  24
ENDBRANCH   1  21
TORSDOF 8
ENDMDL
MODEL 9
REMARK VINA RESULT:    -5.414     16.054     18.092
REMARK INTER + INTRA:          -7.807
REMARK INTER:                  -7.332
REMARK INTRA:                  -0.475
REMARK UNBOUND:                -0.336
REMARK  Name = 91604
REMARK  8 active torsions:
REMARK  status: ('A' for Active; 'I' for Inactive)
REMARK    1  A    between atoms: O_1  and  C_11
REMARK    2  A    between atoms: C_3  and  C_7
REMARK    3  A    between atoms: C_4  and  C_15
REMARK    4  A    between atoms: C_7  and  C_8
REMARK    5  A    between atoms: C_8  and  C_10
REMARK    6  A    between atoms: C_10  and  C_11
REMARK    7  A    between atoms: C_11  and  C_13
REMARK    8  A    between atoms: C_11  and  C_14
REMARK                            x       y       z     vdW  Elec       q    Type
REMARK                         _______ _______ _______ _____ _____    ______ ____
ROOT
ATOM      1  C   UNL     1      -7.015   6.026  -9.760  0.00  0.00    +0.000 C 
ATOM      2  H   UNL     1      -7.673   6.782 -10.208  0.00  0.00    +0.000 HD
ATOM      3  H   UNL     1      -7.241   5.082 -10.272  0.00  0.00    +0.000 HD
ENDROOT
BRANCH   1   4
ATOM      4  C   UNL     1      -5.570   6.365  -9.978  0.00  0.00    +0.000 C 
ATOM      5  C   UNL     1      -2.843   7.343 -10.220  0.00  0.00    +0.000 C 
ATOM      6  C   UNL     1      -4.710   6.427  -8.743  0.00  0.00    +0.000 C 
ATOM      7  C   UNL     1      -3.206   6.444  -9.038  0.00  0.00    +0.000 C 
ATOM      8  C   UNL     1      -3.648   6.987 -11.474  0.00  0.00    +0.000 C 
ATOM      9  C   UNL     1      -5.075   6.606 -11.204  0.00  0.00    +0.000 C 
ATOM     10  H   UNL     1      -1.775   7.234 -10.444  0.00  0.00    +0.000 HD
ATOM     11  H   UNL     1      -4.963   7.331  -8.174  0.00  0.00    +0.000 HD
ATOM     12  H   UNL     1      -4.923   5.569  -8.096  0.00  0.00    +0.000 HD
ATOM     13  H   UNL     1      -2.664   6.751  -8.134  0.00  0.00    +0.000 HD
ATOM     14  H   UNL     1      -2.879   5.419  -9.265  0.00  0.00    +0.000 HD
ATOM     15  H   UNL     1      -3.172   6.126 -11.964  0.00  0.00    +0.000 HD
ATOM     16  H   UNL     1      -3.626   7.804 -12.204  0.00  0.00    +0.000 HD
ATOM     17  H   UNL     1      -5.726   6.535 -12.072  0.00  0.00    +0.000 HD
BRANCH   5  19
ATOM     18  O   UNL     1      -2.544   9.296  -8.845  0.00  0.00    +0.000 OA
ATOM     19  C   UNL     1      -3.035   8.785  -9.847  0.00  0.00    +0.000 C 
ATOM     20  H   UNL     1      -3.672   9.378 -10.526  0.00  0.00    +0.000 HD
ENDBRANCH   5  19
ENDBRANCH   1   4
BRANCH   1  21
ATOM     21  C   UNL     1      -7.349   5.881  -8.273  0.00  0.00    +0.000 C 
ATOM     22  H   UNL     1      -6.856   6.666  -7.691  0.00  0.00    +0.000 HD
ATOM     23  H   UNL     1      -6.929   4.929  -7.931  0.00  0.00    +0.000 HD
BRANCH  21  24
ATOM     24  C   UNL     1      -8.866   5.894  -8.045  0.00  0.00    +0.000 C 
ATOM     25  H   UNL     1      -9.381   6.334  -8.908  0.00  0.00    +0.000 HD
ATOM     26  H   UNL     1      -9.200   4.851  -7.971  0.00  0.00    +0.000 HD
BRANCH  24  27
ATOM     27  C   UNL     1      -9.315   6.646  -6.776  0.00  0.00    +0.000 C 
BRANCH  27  28
ATOM     28  C   UNL     1      -8.211   6.726  -5.720  0.00  0.00    +0.000 C 
ATOM     29  H   UNL     1      -8.198   7.699  -5.218  0.00  0.00    +0.000 HD
ATOM     30  H   UNL     1      -8.324   5.945  -4.961  0.00  0.00    +0.000 HD
ATOM     31  H   UNL     1      -7.224   6.617  -6.184  0.00  0.00    +0.000 HD
ENDBRANCH  27  28
BRANCH  27  32
ATOM     32  C   UNL     1      -9.781   8.056  -7.152  0.00  0.00    +0.000 C 
ATOM     33  H   UNL     1      -9.954   8.675  -6.266  0.00  0.00    +0.000 HD
ATOM     34  H   UNL     1     -10.709   8.018  -7.735  0.00  0.00    +0.000 HD
ATOM     35  H   UNL     1      -9.041   8.556  -7.788  0.00  0.00    +0.000 HD
ENDBRANCH  27  32
BRANCH  27  36
ATOM     36  O   UNL     1     -10.431   5.952  -6.213  0.00  0.00    +0.000 OA
ATOM     37  H   UNL     1     -10.524   6.218  -5.282  0.00  0.00    +0.000 HD
ENDBRANCH  27  36
ENDBRANCH  24  27
ENDBRANCH  21  24
ENDBRANCH   1  21
TORSDOF 8
ENDMDL
MODEL 10
REMARK VINA RESULT:    -5.344     14.076     15.807
REMARK INTER + INTRA:          -7.711
REMARK INTER:                  -7.375
REMARK INTRA:                  -0.336
REMARK UNBOUND:                -0.336
REMARK  Name = 91604
REMARK  8 active torsions:
REMARK  status: ('A' for Active; 'I' for Inactive)
REMARK    1  A    between atoms: O_1  and  C_11
REMARK    2  A    between atoms: C_3  and  C_7
REMARK    3  A    between atoms: C_4  and  C_15
REMARK    4  A    between atoms: C_7  and  C_8
REMARK    5  A    between atoms: C_8  and  C_10
REMARK    6  A    between atoms: C_10  and  C_11
REMARK    7  A    between atoms: C_11  and  C_13
REMARK    8  A    between atoms: C_11  and  C_14
REMARK                            x       y       z     vdW  Elec       q    Type
REMARK                         _______ _______ _______ _____ _____    ______ ____
ROOT
ATOM      1  C   UNL     1      -9.363  10.056   7.142  0.00  0.00    +0.000 C 
ATOM      2  H   UNL     1     -10.378  10.463   7.233  0.00  0.00    +0.000 HD
ATOM      3  H   UNL     1      -9.448   9.158   6.517  0.00  0.00    +0.000 HD
ENDROOT
BRANCH   1   4
ATOM      4  C   UNL     1      -8.445  11.033   6.469  0.00  0.00    +0.000 C 
ATOM      5  C   UNL     1      -6.955  13.163   5.168  0.00  0.00    +0.000 C 
ATOM      6  C   UNL     1      -8.068  12.250   7.272  0.00  0.00    +0.000 C 
ATOM      7  C   UNL     1      -6.887  13.035   6.689  0.00  0.00    +0.000 C 
ATOM      8  C   UNL     1      -7.101  11.798   4.487  0.00  0.00    +0.000 C 
ATOM      9  C   UNL     1      -7.990  10.835   5.220  0.00  0.00    +0.000 C 
ATOM     10  H   UNL     1      -6.038  13.642   4.803  0.00  0.00    +0.000 HD
ATOM     11  H   UNL     1      -8.934  12.921   7.336  0.00  0.00    +0.000 HD
ATOM     12  H   UNL     1      -7.812  11.957   8.297  0.00  0.00    +0.000 HD
ATOM     13  H   UNL     1      -6.843  14.024   7.162  0.00  0.00    +0.000 HD
ATOM     14  H   UNL     1      -5.955  12.519   6.956  0.00  0.00    +0.000 HD
ATOM     15  H   UNL     1      -6.109  11.332   4.419  0.00  0.00    +0.000 HD
ATOM     16  H   UNL     1      -7.459  11.905   3.457  0.00  0.00    +0.000 HD
ATOM     17  H   UNL     1      -8.272   9.935   4.679  0.00  0.00    +0.000 HD
BRANCH   5  19
ATOM     18  O   UNL     1      -7.902  15.165   4.226  0.00  0.00    +0.000 OA
ATOM     19  C   UNL     1      -8.077  14.083   4.778  0.00  0.00    +0.000 C 
ATOM     20  H   UNL     1      -9.094  13.739   5.034  0.00  0.00    +0.000 HD
ENDBRANCH   5  19
ENDBRANCH   1   4
BRANCH   1  21
ATOM     21  C   UNL     1      -8.852   9.654   8.528  0.00  0.00    +0.000 C 
ATOM     22  H   UNL     1      -8.151  10.403   8.911  0.00  0.00    +0.000 HD
ATOM     23  H   UNL     1      -8.283   8.725   8.414  0.00  0.00    +0.000 HD
BRANCH  21  24
ATOM     24  C   UNL     1     -10.016   9.437   9.503  0.00  0.00    +0.000 C 
ATOM     25  H   UNL     1     -10.585  10.365   9.634  0.00  0.00    +0.000 HD
ATOM     26  H   UNL     1     -10.697   8.705   9.050  0.00  0.00    +0.000 HD
BRANCH  24  27
ATOM     27  C   UNL     1      -9.597   8.922  10.895  0.00  0.00    +0.000 C 
BRANCH  27  28
ATOM     28  C   UNL     1      -9.196  10.054  11.843  0.00  0.00    +0.000 C 
ATOM     29  H   UNL     1      -8.386   9.753  12.516  0.00  0.00    +0.000 HD
ATOM     30  H   UNL     1      -8.878  10.945  11.292  0.00  0.00    +0.000 HD
ATOM     31  H   UNL     1     -10.035  10.330  12.492  0.00  0.00    +0.000 HD
ENDBRANCH  27  28
BRANCH  27  32
ATOM     32  C   UNL     1     -10.742   8.110  11.508  0.00  0.00    +0.000 C 
ATOM     33  H   UNL     1     -10.511   7.040  11.534  0.00  0.00    +0.000 HD
ATOM     34  H   UNL     1     -11.669   8.251  10.938  0.00  0.00    +0.000 HD
ATOM     35  H   UNL     1     -10.957   8.445  12.530  0.00  0.00    +0.000 HD
ENDBRANCH  27  32
BRANCH  27  36
ATOM     36  O   UNL     1      -8.478   8.049  10.733  0.00  0.00    +0.000 OA
ATOM     37  H   UNL     1      -8.592   7.549   9.907  0.00  0.00    +0.000 HD
ENDBRANCH  27  36
ENDBRANCH  24  27
ENDBRANCH  21  24
ENDBRANCH   1  21
TORSDOF 8
ENDMDL
