MODEL 1
REMARK VINA RESULT:    -5.365      0.000      0.000
REMARK INTER + INTRA:          -6.515
REMARK INTER:                  -6.298
REMARK INTRA:                  -0.216
REMARK UNBOUND:                -0.209
REMARK  Name = 16666
REMARK  5 active torsions:
REMARK  status: ('A' for Active; 'I' for Inactive)
REMARK    1  A    between atoms: O_1  and  C_3
REMARK    2  A    between atoms: C_2  and  C_8
REMARK    3  A    between atoms: C_5  and  C_9
REMARK    4  A    between atoms: C_8  and  C_10
REMARK    5  A    between atoms: C_8  and  C_11
REMARK                            x       y       z     vdW  Elec       q    Type
REMARK                         _______ _______ _______ _____ _____    ______ ____
ROOT
ATOM      1  C   UNL     1       4.926   9.529   0.235  0.00  0.00    +0.000 C 
ATOM      2  C   UNL     1       6.334   9.150   0.724  0.00  0.00    +0.000 C 
ATOM      3  C   UNL     1       3.964   9.698   1.419  0.00  0.00    +0.000 C 
ATOM      4  C   UNL     1       5.344   8.094   2.809  0.00  0.00    +0.000 C 
ATOM      5  C   UNL     1       6.303   7.915   1.629  0.00  0.00    +0.000 C 
ATOM      6  C   UNL     1       3.939   8.461   2.313  0.00  0.00    +0.000 C 
ATOM      7  H   UNL     1       4.556   8.711  -0.400  0.00  0.00    +0.000 HD
ATOM      8  H   UNL     1       6.803   9.957   1.293  0.00  0.00    +0.000 HD
ATOM      9  H   UNL     1       2.940   9.876   1.075  0.00  0.00    +0.000 HD
ATOM     10  H   UNL     1       4.246  10.545   2.053  0.00  0.00    +0.000 HD
ATOM     11  H   UNL     1       5.715   8.914   3.437  0.00  0.00    +0.000 HD
ATOM     12  H   UNL     1       7.318   7.706   1.990  0.00  0.00    +0.000 HD
ATOM     13  H   UNL     1       6.016   7.035   1.038  0.00  0.00    +0.000 HD
ATOM     14  H   UNL     1       3.279   8.646   3.169  0.00  0.00    +0.000 HD
ATOM     15  H   UNL     1       3.507   7.621   1.755  0.00  0.00    +0.000 HD
ENDROOT
BRANCH   4  16
ATOM     16  C   UNL     1       5.300   6.830   3.666  0.00  0.00    +0.000 C 
ATOM     17  H   UNL     1       6.253   6.293   3.614  0.00  0.00    +0.000 HD
ATOM     18  H   UNL     1       5.112   7.079   4.715  0.00  0.00    +0.000 HD
ATOM     19  H   UNL     1       4.509   6.149   3.333  0.00  0.00    +0.000 HD
ENDBRANCH   4  16
BRANCH   2  20
ATOM     20  O   UNL     1       7.167   8.877  -0.400  0.00  0.00    +0.000 OA
ATOM     21  H   UNL     1       6.681   8.279  -0.995  0.00  0.00    +0.000 HD
ENDBRANCH   2  20
BRANCH   1  22
ATOM     22  C   UNL     1       4.954  10.802  -0.614  0.00  0.00    +0.000 C 
ATOM     23  H   UNL     1       5.586  10.635  -1.495  0.00  0.00    +0.000 HD
BRANCH  22  24
ATOM     24  C   UNL     1       3.552  11.140  -1.113  0.00  0.00    +0.000 C 
ATOM     25  H   UNL     1       3.057  11.904  -0.505  0.00  0.00    +0.000 HD
ATOM     26  H   UNL     1       3.607  11.538  -2.133  0.00  0.00    +0.000 HD
ATOM     27  H   UNL     1       2.914  10.251  -1.144  0.00  0.00    +0.000 HD
ENDBRANCH  22  24
BRANCH  22  28
ATOM     28  C   UNL     1       5.537  11.964   0.185  0.00  0.00    +0.000 C 
ATOM     29  H   UNL     1       5.547  11.793   1.265  0.00  0.00    +0.000 HD
ATOM     30  H   UNL     1       4.907  12.850   0.033  0.00  0.00    +0.000 HD
ATOM     31  H   UNL     1       6.538  12.256  -0.140  0.00  0.00    +0.000 HD
ENDBRANCH  22  28
ENDBRANCH   1  22
TORSDOF 5
ENDMDL
MODEL 2
REMARK VINA RESULT:    -5.227      2.036      3.685
REMARK INTER + INTRA:          -6.353
REMARK INTER:                  -6.153
REMARK INTRA:                  -0.200
REMARK UNBOUND:                -0.209
REMARK  Name = 16666
REMARK  5 active torsions:
REMARK  status: ('A' for Active; 'I' for Inactive)
REMARK    1  A    between atoms: O_1  and  C_3
REMARK    2  A    between atoms: C_2  and  C_8
REMARK    3  A    between atoms: C_5  and  C_9
REMARK    4  A    between atoms: C_8  and  C_10
REMARK    5  A    between atoms: C_8  and  C_11
REMARK                            x       y       z     vdW  Elec       q    Type
REMARK                         _______ _______ _______ _____ _____    ______ ____
ROOT
ATOM      1  C   UNL     1       5.667  10.401   0.508  0.00  0.00    +0.000 C 
ATOM      2  C   UNL     1       6.427   9.110   0.856  0.00  0.00    +0.000 C 
ATOM      3  C   UNL     1       5.913  10.803  -0.952  0.00  0.00    +0.000 C 
ATOM      4  C   UNL     1       8.155   9.629  -0.929  0.00  0.00    +0.000 C 
ATOM      5  C   UNL     1       7.919   9.230   0.531  0.00  0.00    +0.000 C 
ATOM      6  C   UNL     1       7.402  10.922  -1.266  0.00  0.00    +0.000 C 
ATOM      7  H   UNL     1       6.044  11.203   1.159  0.00  0.00    +0.000 HD
ATOM      8  H   UNL     1       6.045   8.246   0.307  0.00  0.00    +0.000 HD
ATOM      9  H   UNL     1       5.451  11.769  -1.181  0.00  0.00    +0.000 HD
ATOM     10  H   UNL     1       5.497  10.071  -1.650  0.00  0.00    +0.000 HD
ATOM     11  H   UNL     1       7.774   8.827  -1.574  0.00  0.00    +0.000 HD
ATOM     12  H   UNL     1       8.414   8.277   0.751  0.00  0.00    +0.000 HD
ATOM     13  H   UNL     1       8.383   9.964   1.204  0.00  0.00    +0.000 HD
ATOM     14  H   UNL     1       7.531  11.162  -2.328  0.00  0.00    +0.000 HD
ATOM     15  H   UNL     1       7.825  11.760  -0.698  0.00  0.00    +0.000 HD
ENDROOT
BRANCH   4  16
ATOM     16  C   UNL     1       9.649   9.785  -1.210  0.00  0.00    +0.000 C 
ATOM     17  H   UNL     1      10.148  10.302  -0.383  0.00  0.00    +0.000 HD
ATOM     18  H   UNL     1      10.125   8.806  -1.330  0.00  0.00    +0.000 HD
ATOM     19  H   UNL     1       9.824  10.361  -2.125  0.00  0.00    +0.000 HD
ENDBRANCH   4  16
BRANCH   2  20
ATOM     20  O   UNL     1       6.280   8.835   2.247  0.00  0.00    +0.000 OA
ATOM     21  H   UNL     1       6.586   7.925   2.407  0.00  0.00    +0.000 HD
ENDBRANCH   2  20
BRANCH   1  22
ATOM     22  C   UNL     1       4.166  10.253   0.773  0.00  0.00    +0.000 C 
ATOM     23  H   UNL     1       3.999  10.140   1.852  0.00  0.00    +0.000 HD
BRANCH  22  24
ATOM     24  C   UNL     1       3.419  11.505   0.322  0.00  0.00    +0.000 C 
ATOM     25  H   UNL     1       2.339  11.434   0.476  0.00  0.00    +0.000 HD
ATOM     26  H   UNL     1       3.763  12.371   0.900  0.00  0.00    +0.000 HD
ATOM     27  H   UNL     1       3.608  11.723  -0.735  0.00  0.00    +0.000 HD
ENDBRANCH  22  24
BRANCH  22  28
ATOM     28  C   UNL     1       3.620   9.015   0.068  0.00  0.00    +0.000 C 
ATOM     29  H   UNL     1       4.198   8.718  -0.810  0.00  0.00    +0.000 HD
ATOM     30  H   UNL     1       2.611   9.236  -0.304  0.00  0.00    +0.000 HD
ATOM     31  H   UNL     1       3.506   8.153   0.729  0.00  0.00    +0.000 HD
ENDBRANCH  22  28
ENDBRANCH   1  22
TORSDOF 5
ENDMDL
MODEL 3
REMARK VINA RESULT:    -5.059      1.806      4.555
REMARK INTER + INTRA:          -6.155
REMARK INTER:                  -5.996
REMARK INTRA:                  -0.160
REMARK UNBOUND:                -0.209
REMARK  Name = 16666
REMARK  5 active torsions:
REMARK  status: ('A' for Active; 'I' for Inactive)
REMARK    1  A    between atoms: O_1  and  C_3
REMARK    2  A    between atoms: C_2  and  C_8
REMARK    3  A    between atoms: C_5  and  C_9
REMARK    4  A    between atoms: C_8  and  C_10
REMARK    5  A    between atoms: C_8  and  C_11
REMARK                            x       y       z     vdW  Elec       q    Type
REMARK                         _______ _______ _______ _____ _____    ______ ____
ROOT
ATOM      1  C   UNL     1       5.944   8.363   2.186  0.00  0.00    +0.000 C 
ATOM      2  C   UNL     1       4.968   9.411   1.627  0.00  0.00    +0.000 C 
ATOM      3  C   UNL     1       7.389   8.878   2.132  0.00  0.00    +0.000 C 
ATOM      4  C   UNL     1       6.812  10.378   0.176  0.00  0.00    +0.000 C 
ATOM      5  C   UNL     1       5.371   9.862   0.220  0.00  0.00    +0.000 C 
ATOM      6  C   UNL     1       7.782   9.324   0.726  0.00  0.00    +0.000 C 
ATOM      7  H   UNL     1       5.872   7.462   1.559  0.00  0.00    +0.000 HD
ATOM      8  H   UNL     1       4.920  10.305   2.253  0.00  0.00    +0.000 HD
ATOM      9  H   UNL     1       8.098   8.104   2.442  0.00  0.00    +0.000 HD
ATOM     10  H   UNL     1       7.537   9.738   2.793  0.00  0.00    +0.000 HD
ATOM     11  H   UNL     1       6.879  11.274   0.807  0.00  0.00    +0.000 HD
ATOM     12  H   UNL     1       4.677  10.639  -0.123  0.00  0.00    +0.000 HD
ATOM     13  H   UNL     1       5.246   9.028  -0.483  0.00  0.00    +0.000 HD
ATOM     14  H   UNL     1       8.800   9.729   0.746  0.00  0.00    +0.000 HD
ATOM     15  H   UNL     1       7.800   8.451   0.063  0.00  0.00    +0.000 HD
ENDROOT
BRANCH   4  16
ATOM     16  C   UNL     1       7.199  10.777  -1.247  0.00  0.00    +0.000 C 
ATOM     17  H   UNL     1       6.761  10.088  -1.976  0.00  0.00    +0.000 HD
ATOM     18  H   UNL     1       6.839  11.785  -1.478  0.00  0.00    +0.000 HD
ATOM     19  H   UNL     1       8.286  10.768  -1.382  0.00  0.00    +0.000 HD
ENDBRANCH   4  16
BRANCH   2  20
ATOM     20  O   UNL     1       3.657   8.854   1.573  0.00  0.00    +0.000 OA
ATOM     21  H   UNL     1       3.654   8.157   0.894  0.00  0.00    +0.000 HD
ENDBRANCH   2  20
BRANCH   1  22
ATOM     22  C   UNL     1       5.575   7.963   3.617  0.00  0.00    +0.000 C 
ATOM     23  H   UNL     1       4.754   8.601   3.970  0.00  0.00    +0.000 HD
BRANCH  22  24
ATOM     24  C   UNL     1       5.084   6.519   3.658  0.00  0.00    +0.000 C 
ATOM     25  H   UNL     1       5.440   5.974   4.537  0.00  0.00    +0.000 HD
ATOM     26  H   UNL     1       3.988   6.500   3.698  0.00  0.00    +0.000 HD
ATOM     27  H   UNL     1       5.385   5.970   2.760  0.00  0.00    +0.000 HD
ENDBRANCH  22  24
BRANCH  22  28
ATOM     28  C   UNL     1       6.768   8.153   4.548  0.00  0.00    +0.000 C 
ATOM     29  H   UNL     1       6.889   9.179   4.906  0.00  0.00    +0.000 HD
ATOM     30  H   UNL     1       7.689   7.923   3.996  0.00  0.00    +0.000 HD
ATOM     31  H   UNL     1       6.764   7.475   5.405  0.00  0.00    +0.000 HD
ENDBRANCH  22  28
ENDBRANCH   1  22
TORSDOF 5
ENDMDL
MODEL 4
REMARK VINA RESULT:    -5.045     13.119     14.456
REMARK INTER + INTRA:          -6.139
REMARK INTER:                  -5.920
REMARK INTRA:                  -0.219
REMARK UNBOUND:                -0.209
REMARK  Name = 16666
REMARK  5 active torsions:
REMARK  status: ('A' for Active; 'I' for Inactive)
REMARK    1  A    between atoms: O_1  and  C_3
REMARK    2  A    between atoms: C_2  and  C_8
REMARK    3  A    between atoms: C_5  and  C_9
REMARK    4  A    between atoms: C_8  and  C_10
REMARK    5  A    between atoms: C_8  and  C_11
REMARK                            x       y       z     vdW  Elec       q    Type
REMARK                         _______ _______ _______ _____ _____    ______ ____
ROOT
ATOM      1  C   UNL     1      -1.204   8.690 -11.796  0.00  0.00    +0.000 C 
ATOM      2  C   UNL     1      -1.801   9.519 -10.647  0.00  0.00    +0.000 C 
ATOM      3  C   UNL     1      -2.219   7.660 -12.311  0.00  0.00    +0.000 C 
ATOM      4  C   UNL     1      -3.353   7.602 -10.049  0.00  0.00    +0.000 C 
ATOM      5  C   UNL     1      -2.339   8.624  -9.527  0.00  0.00    +0.000 C 
ATOM      6  C   UNL     1      -2.748   6.772 -11.188  0.00  0.00    +0.000 C 
ATOM      7  H   UNL     1      -0.328   8.151 -11.407  0.00  0.00    +0.000 HD
ATOM      8  H   UNL     1      -2.627  10.152 -10.981  0.00  0.00    +0.000 HD
ATOM      9  H   UNL     1      -1.771   7.005 -13.065  0.00  0.00    +0.000 HD
ATOM     10  H   UNL     1      -3.086   8.142 -12.773  0.00  0.00    +0.000 HD
ATOM     11  H   UNL     1      -4.224   8.145 -10.440  0.00  0.00    +0.000 HD
ATOM     12  H   UNL     1      -2.795   9.251  -8.750  0.00  0.00    +0.000 HD
ATOM     13  H   UNL     1      -1.503   8.110  -9.034  0.00  0.00    +0.000 HD
ATOM     14  H   UNL     1      -3.502   6.087 -11.592  0.00  0.00    +0.000 HD
ATOM     15  H   UNL     1      -1.929   6.150 -10.804  0.00  0.00    +0.000 HD
ENDROOT
BRANCH   4  16
ATOM     16  C   UNL     1      -3.836   6.695  -8.918  0.00  0.00    +0.000 C 
ATOM     17  H   UNL     1      -4.024   5.681  -9.287  0.00  0.00    +0.000 HD
ATOM     18  H   UNL     1      -3.084   6.630  -8.125  0.00  0.00    +0.000 HD
ATOM     19  H   UNL     1      -4.764   7.071  -8.474  0.00  0.00    +0.000 HD
ENDBRANCH   4  16
BRANCH   2  20
ATOM     20  O   UNL     1      -0.796  10.374 -10.109  0.00  0.00    +0.000 OA
ATOM     21  H   UNL     1      -1.178  10.847  -9.350  0.00  0.00    +0.000 HD
ENDBRANCH   2  20
BRANCH   1  22
ATOM     22  C   UNL     1      -0.728   9.586 -12.942  0.00  0.00    +0.000 C 
ATOM     23  H   UNL     1       0.007  10.305 -12.557  0.00  0.00    +0.000 HD
BRANCH  22  24
ATOM     24  C   UNL     1      -0.035   8.754 -14.017  0.00  0.00    +0.000 C 
ATOM     25  H   UNL     1      -0.473   8.893 -15.010  0.00  0.00    +0.000 HD
ATOM     26  H   UNL     1       1.018   9.049 -14.094  0.00  0.00    +0.000 HD
ATOM     27  H   UNL     1      -0.057   7.687 -13.771  0.00  0.00    +0.000 HD
ENDBRANCH  22  24
BRANCH  22  28
ATOM     28  C   UNL     1      -1.900  10.363 -13.534  0.00  0.00    +0.000 C 
ATOM     29  H   UNL     1      -2.084  10.146 -14.589  0.00  0.00    +0.000 HD
ATOM     30  H   UNL     1      -1.672  11.436 -13.488  0.00  0.00    +0.000 HD
ATOM     31  H   UNL     1      -2.831  10.238 -12.975  0.00  0.00    +0.000 HD
ENDBRANCH  22  28
ENDBRANCH   1  22
TORSDOF 5
ENDMDL
MODEL 5
REMARK VINA RESULT:    -4.774     27.657     29.048
REMARK INTER + INTRA:          -5.821
REMARK INTER:                  -5.606
REMARK INTRA:                  -0.215
REMARK UNBOUND:                -0.209
REMARK  Name = 16666
REMARK  5 active torsions:
REMARK  status: ('A' for Active; 'I' for Inactive)
REMARK    1  A    between atoms: O_1  and  C_3
REMARK    2  A    between atoms: C_2  and  C_8
REMARK    3  A    between atoms: C_5  and  C_9
REMARK    4  A    between atoms: C_8  and  C_10
REMARK    5  A    between atoms: C_8  and  C_11
REMARK                            x       y       z     vdW  Elec       q    Type
REMARK                         _______ _______ _______ _____ _____    ______ ____
ROOT
ATOM      1  C   UNL     1     -19.976  -5.091   3.588  0.00  0.00    +0.000 C 
ATOM      2  C   UNL     1     -19.323  -4.482   4.840  0.00  0.00    +0.000 C 
ATOM      3  C   UNL     1     -20.686  -4.010   2.762  0.00  0.00    +0.000 C 
ATOM      4  C   UNL     1     -21.035  -2.609   4.842  0.00  0.00    +0.000 C 
ATOM      5  C   UNL     1     -20.333  -3.687   5.672  0.00  0.00    +0.000 C 
ATOM      6  C   UNL     1     -21.692  -3.224   3.600  0.00  0.00    +0.000 C 
ATOM      7  H   UNL     1     -20.725  -5.825   3.918  0.00  0.00    +0.000 HD
ATOM      8  H   UNL     1     -18.504  -3.803   4.590  0.00  0.00    +0.000 HD
ATOM      9  H   UNL     1     -21.231  -4.448   1.920  0.00  0.00    +0.000 HD
ATOM     10  H   UNL     1     -19.979  -3.284   2.350  0.00  0.00    +0.000 HD
ATOM     11  H   UNL     1     -20.283  -1.880   4.511  0.00  0.00    +0.000 HD
ATOM     12  H   UNL     1     -19.819  -3.235   6.529  0.00  0.00    +0.000 HD
ATOM     13  H   UNL     1     -21.074  -4.374   6.105  0.00  0.00    +0.000 HD
ATOM     14  H   UNL     1     -22.138  -2.434   2.984  0.00  0.00    +0.000 HD
ATOM     15  H   UNL     1     -22.510  -3.891   3.901  0.00  0.00    +0.000 HD
ENDROOT
BRANCH   4  16
ATOM     16  C   UNL     1     -22.068  -1.864   5.686  0.00  0.00    +0.000 C 
ATOM     17  H   UNL     1     -21.779  -1.864   6.742  0.00  0.00    +0.000 HD
ATOM     18  H   UNL     1     -22.156  -0.822   5.361  0.00  0.00    +0.000 HD
ATOM     19  H   UNL     1     -23.057  -2.328   5.606  0.00  0.00    +0.000 HD
ENDBRANCH   4  16
BRANCH   2  20
ATOM     20  O   UNL     1     -18.784  -5.526   5.647  0.00  0.00    +0.000 OA
ATOM     21  H   UNL     1     -18.195  -6.063   5.089  0.00  0.00    +0.000 HD
ENDBRANCH   2  20
BRANCH   1  22
ATOM     22  C   UNL     1     -18.948  -5.829   2.726  0.00  0.00    +0.000 C 
ATOM     23  H   UNL     1     -18.363  -6.506   3.362  0.00  0.00    +0.000 HD
BRANCH  22  24
ATOM     24  C   UNL     1     -19.650  -6.680   1.672  0.00  0.00    +0.000 C 
ATOM     25  H   UNL     1     -20.710  -6.841   1.892  0.00  0.00    +0.000 HD
ATOM     26  H   UNL     1     -19.604  -6.178   0.699  0.00  0.00    +0.000 HD
ATOM     27  H   UNL     1     -19.165  -7.655   1.559  0.00  0.00    +0.000 HD
ENDBRANCH  22  24
BRANCH  22  28
ATOM     28  C   UNL     1     -17.992  -4.837   2.070  0.00  0.00    +0.000 C 
ATOM     29  H   UNL     1     -17.187  -5.312   1.503  0.00  0.00    +0.000 HD
ATOM     30  H   UNL     1     -17.496  -4.252   2.854  0.00  0.00    +0.000 HD
ATOM     31  H   UNL     1     -18.495  -4.106   1.433  0.00  0.00    +0.000 HD
ENDBRANCH  22  28
ENDBRANCH   1  22
TORSDOF 5
ENDMDL
MODEL 6
REMARK VINA RESULT:    -4.722     17.587     18.482
REMARK INTER + INTRA:          -5.760
REMARK INTER:                  -5.541
REMARK INTRA:                  -0.218
REMARK UNBOUND:                -0.209
REMARK  Name = 16666
REMARK  5 active torsions:
REMARK  status: ('A' for Active; 'I' for Inactive)
REMARK    1  A    between atoms: O_1  and  C_3
REMARK    2  A    between atoms: C_2  and  C_8
REMARK    3  A    between atoms: C_5  and  C_9
REMARK    4  A    between atoms: C_8  and  C_10
REMARK    5  A    between atoms: C_8  and  C_11
REMARK                            x       y       z     vdW  Elec       q    Type
REMARK                         _______ _______ _______ _____ _____    ______ ____
ROOT
ATOM      1  C   UNL     1       2.575  -0.443 -13.254  0.00  0.00    +0.000 C 
ATOM      2  C   UNL     1       2.836  -1.872 -13.757  0.00  0.00    +0.000 C 
ATOM      3  C   UNL     1       2.797   0.581 -14.376  0.00  0.00    +0.000 C 
ATOM      4  C   UNL     1       4.436  -0.979 -15.513  0.00  0.00    +0.000 C 
ATOM      5  C   UNL     1       4.223  -2.001 -14.393  0.00  0.00    +0.000 C 
ATOM      6  C   UNL     1       4.183   0.445 -15.002  0.00  0.00    +0.000 C 
ATOM      7  H   UNL     1       3.288  -0.232 -12.444  0.00  0.00    +0.000 HD
ATOM      8  H   UNL     1       2.105  -2.185 -14.508  0.00  0.00    +0.000 HD
ATOM      9  H   UNL     1       2.704   1.605 -14.002  0.00  0.00    +0.000 HD
ATOM     10  H   UNL     1       2.069   0.461 -15.184  0.00  0.00    +0.000 HD
ATOM     11  H   UNL     1       3.719  -1.191 -16.318  0.00  0.00    +0.000 HD
ATOM     12  H   UNL     1       4.351  -3.020 -14.777  0.00  0.00    +0.000 HD
ATOM     13  H   UNL     1       4.994  -1.881 -13.620  0.00  0.00    +0.000 HD
ATOM     14  H   UNL     1       4.279   1.160 -15.827  0.00  0.00    +0.000 HD
ATOM     15  H   UNL     1       4.943   0.716 -14.258  0.00  0.00    +0.000 HD
ENDROOT
BRANCH   4  16
ATOM     16  C   UNL     1       5.843  -1.101 -16.096  0.00  0.00    +0.000 C 
ATOM     17  H   UNL     1       6.594  -0.785 -15.365  0.00  0.00    +0.000 HD
ATOM     18  H   UNL     1       6.058  -2.139 -16.373  0.00  0.00    +0.000 HD
ATOM     19  H   UNL     1       5.959  -0.481 -16.991  0.00  0.00    +0.000 HD
ENDBRANCH   4  16
BRANCH   2  20
ATOM     20  O   UNL     1       2.745  -2.782 -12.664  0.00  0.00    +0.000 OA
ATOM     21  H   UNL     1       3.248  -2.408 -11.920  0.00  0.00    +0.000 HD
ENDBRANCH   2  20
BRANCH   1  22
ATOM     22  C   UNL     1       1.163  -0.303 -12.679  0.00  0.00    +0.000 C 
ATOM     23  H   UNL     1       1.019  -1.049 -11.887  0.00  0.00    +0.000 HD
BRANCH  22  24
ATOM     24  C   UNL     1       0.978   1.075 -12.050  0.00  0.00    +0.000 C 
ATOM     25  H   UNL     1       0.171   1.100 -11.311  0.00  0.00    +0.000 HD
ATOM     26  H   UNL     1       1.894   1.370 -11.525  0.00  0.00    +0.000 HD
ATOM     27  H   UNL     1       0.778   1.838 -12.811  0.00  0.00    +0.000 HD
ENDBRANCH  22  24
BRANCH  22  28
ATOM     28  C   UNL     1       0.119  -0.544 -13.765  0.00  0.00    +0.000 C 
ATOM     29  H   UNL     1      -0.678  -1.229 -13.465  0.00  0.00    +0.000 HD
ATOM     30  H   UNL     1       0.607  -1.019 -14.626  0.00  0.00    +0.000 HD
ATOM     31  H   UNL     1      -0.327   0.375 -14.152  0.00  0.00    +0.000 HD
ENDBRANCH  22  28
ENDBRANCH   1  22
TORSDOF 5
ENDMDL
MODEL 7
REMARK VINA RESULT:    -4.706     15.447     17.011
REMARK INTER + INTRA:          -5.741
REMARK INTER:                  -5.558
REMARK INTRA:                  -0.183
REMARK UNBOUND:                -0.209
REMARK  Name = 16666
REMARK  5 active torsions:
REMARK  status: ('A' for Active; 'I' for Inactive)
REMARK    1  A    between atoms: O_1  and  C_3
REMARK    2  A    between atoms: C_2  and  C_8
REMARK    3  A    between atoms: C_5  and  C_9
REMARK    4  A    between atoms: C_8  and  C_10
REMARK    5  A    between atoms: C_8  and  C_11
REMARK                            x       y       z     vdW  Elec       q    Type
REMARK                         _______ _______ _______ _____ _____    ______ ____
ROOT
ATOM      1  C   UNL     1      -9.213   5.282  -5.915  0.00  0.00    +0.000 C 
ATOM      2  C   UNL     1      -8.307   6.513  -5.747  0.00  0.00    +0.000 C 
ATOM      3  C   UNL     1      -9.949   5.325  -7.261  0.00  0.00    +0.000 C 
ATOM      4  C   UNL     1      -9.816   7.853  -7.286  0.00  0.00    +0.000 C 
ATOM      5  C   UNL     1      -9.087   7.817  -5.940  0.00  0.00    +0.000 C 
ATOM      6  C   UNL     1     -10.725   6.628  -7.443  0.00  0.00    +0.000 C 
ATOM      7  H   UNL     1      -9.960   5.297  -5.109  0.00  0.00    +0.000 HD
ATOM      8  H   UNL     1      -7.483   6.520  -6.465  0.00  0.00    +0.000 HD
ATOM      9  H   UNL     1     -10.665   4.501  -7.348  0.00  0.00    +0.000 HD
ATOM     10  H   UNL     1      -9.257   5.246  -8.105  0.00  0.00    +0.000 HD
ATOM     11  H   UNL     1      -9.066   7.834  -8.088  0.00  0.00    +0.000 HD
ATOM     12  H   UNL     1      -8.398   8.666  -5.856  0.00  0.00    +0.000 HD
ATOM     13  H   UNL     1      -9.805   7.940  -5.117  0.00  0.00    +0.000 HD
ATOM     14  H   UNL     1     -11.193   6.635  -8.434  0.00  0.00    +0.000 HD
ATOM     15  H   UNL     1     -11.539   6.668  -6.708  0.00  0.00    +0.000 HD
ENDROOT
BRANCH   4  16
ATOM     16  C   UNL     1     -10.621   9.144  -7.429  0.00  0.00    +0.000 C 
ATOM     17  H   UNL     1     -11.673   8.924  -7.640  0.00  0.00    +0.000 HD
ATOM     18  H   UNL     1     -10.580   9.731  -6.505  0.00  0.00    +0.000 HD
ATOM     19  H   UNL     1     -10.236   9.766  -8.243  0.00  0.00    +0.000 HD
ENDBRANCH   4  16
BRANCH   2  20
ATOM     20  O   UNL     1      -7.739   6.506  -4.440  0.00  0.00    +0.000 OA
ATOM     21  H   UNL     1      -7.835   5.609  -4.075  0.00  0.00    +0.000 HD
ENDBRANCH   2  20
BRANCH   1  22
ATOM     22  C   UNL     1      -8.416   3.981  -5.787  0.00  0.00    +0.000 C 
ATOM     23  H   UNL     1      -7.357   4.221  -5.622  0.00  0.00    +0.000 HD
BRANCH  22  24
ATOM     24  C   UNL     1      -8.897   3.177  -4.583  0.00  0.00    +0.000 C 
ATOM     25  H   UNL     1      -8.775   3.714  -3.637  0.00  0.00    +0.000 HD
ATOM     26  H   UNL     1      -9.967   2.960  -4.685  0.00  0.00    +0.000 HD
ATOM     27  H   UNL     1      -8.376   2.217  -4.509  0.00  0.00    +0.000 HD
ENDBRANCH  22  24
BRANCH  22  28
ATOM     28  C   UNL     1      -8.530   3.157  -7.066  0.00  0.00    +0.000 C 
ATOM     29  H   UNL     1      -8.436   3.749  -7.980  0.00  0.00    +0.000 HD
ATOM     30  H   UNL     1      -9.530   2.706  -7.108  0.00  0.00    +0.000 HD
ATOM     31  H   UNL     1      -7.829   2.320  -7.109  0.00  0.00    +0.000 HD
ENDBRANCH  22  28
ENDBRANCH   1  22
TORSDOF 5
ENDMDL
MODEL 8
REMARK VINA RESULT:    -4.653     28.670     29.230
REMARK INTER + INTRA:          -5.679
REMARK INTER:                  -5.463
REMARK INTRA:                  -0.215
REMARK UNBOUND:                -0.209
REMARK  Name = 16666
REMARK  5 active torsions:
REMARK  status: ('A' for Active; 'I' for Inactive)
REMARK    1  A    between atoms: O_1  and  C_3
REMARK    2  A    between atoms: C_2  and  C_8
REMARK    3  A    between atoms: C_5  and  C_9
REMARK    4  A    between atoms: C_8  and  C_10
REMARK    5  A    between atoms: C_8  and  C_11
REMARK                            x       y       z     vdW  Elec       q    Type
REMARK                         _______ _______ _______ _____ _____    ______ ____
ROOT
ATOM      1  C   UNL     1     -20.590  -2.364   5.558  0.00  0.00    +0.000 C 
ATOM      2  C   UNL     1     -20.552  -3.822   5.071  0.00  0.00    +0.000 C 
ATOM      3  C   UNL     1     -21.521  -1.519   4.678  0.00  0.00    +0.000 C 
ATOM      4  C   UNL     1     -21.123  -3.067   2.716  0.00  0.00    +0.000 C 
ATOM      5  C   UNL     1     -20.187  -3.911   3.586  0.00  0.00    +0.000 C 
ATOM      6  C   UNL     1     -21.148  -1.612   3.201  0.00  0.00    +0.000 C 
ATOM      7  H   UNL     1     -19.573  -1.954   5.483  0.00  0.00    +0.000 HD
ATOM      8  H   UNL     1     -21.514  -4.325   5.198  0.00  0.00    +0.000 HD
ATOM      9  H   UNL     1     -21.482  -0.462   4.961  0.00  0.00    +0.000 HD
ATOM     10  H   UNL     1     -22.564  -1.840   4.765  0.00  0.00    +0.000 HD
ATOM     11  H   UNL     1     -22.138  -3.478   2.798  0.00  0.00    +0.000 HD
ATOM     12  H   UNL     1     -20.215  -4.961   3.270  0.00  0.00    +0.000 HD
ATOM     13  H   UNL     1     -19.146  -3.590   3.445  0.00  0.00    +0.000 HD
ATOM     14  H   UNL     1     -21.867  -1.034   2.609  0.00  0.00    +0.000 HD
ATOM     15  H   UNL     1     -20.165  -1.149   3.047  0.00  0.00    +0.000 HD
ENDROOT
BRANCH   4  16
ATOM     16  C   UNL     1     -20.706  -3.140   1.248  0.00  0.00    +0.000 C 
ATOM     17  H   UNL     1     -20.806  -4.161   0.866  0.00  0.00    +0.000 HD
ATOM     18  H   UNL     1     -21.336  -2.487   0.633  0.00  0.00    +0.000 HD
ATOM     19  H   UNL     1     -19.664  -2.828   1.113  0.00  0.00    +0.000 HD
ENDBRANCH   4  16
BRANCH   2  20
ATOM     20  O   UNL     1     -19.586  -4.548   5.826  0.00  0.00    +0.000 OA
ATOM     21  H   UNL     1     -20.061  -5.174   6.400  0.00  0.00    +0.000 HD
ENDBRANCH   2  20
BRANCH   1  22
ATOM     22  C   UNL     1     -21.020  -2.277   7.025  0.00  0.00    +0.000 C 
ATOM     23  H   UNL     1     -20.417  -2.975   7.620  0.00  0.00    +0.000 HD
BRANCH  22  24
ATOM     24  C   UNL     1     -20.770  -0.874   7.570  0.00  0.00    +0.000 C 
ATOM     25  H   UNL     1     -20.127  -0.871   8.456  0.00  0.00    +0.000 HD
ATOM     26  H   UNL     1     -20.263  -0.265   6.812  0.00  0.00    +0.000 HD
ATOM     27  H   UNL     1     -21.709  -0.369   7.819  0.00  0.00    +0.000 HD
ENDBRANCH  22  24
BRANCH  22  28
ATOM     28  C   UNL     1     -22.489  -2.660   7.173  0.00  0.00    +0.000 C 
ATOM     29  H   UNL     1     -22.853  -3.324   6.385  0.00  0.00    +0.000 HD
ATOM     30  H   UNL     1     -23.101  -1.751   7.100  0.00  0.00    +0.000 HD
ATOM     31  H   UNL     1     -22.729  -3.096   8.146  0.00  0.00    +0.000 HD
ENDBRANCH  22  28
ENDBRANCH   1  22
TORSDOF 5
ENDMDL
MODEL 9
REMARK VINA RESULT:    -4.520     28.264     29.116
REMARK INTER + INTRA:          -5.522
REMARK INTER:                  -5.351
REMARK INTRA:                  -0.171
REMARK UNBOUND:                -0.209
REMARK  Name = 16666
REMARK  5 active torsions:
REMARK  status: ('A' for Active; 'I' for Inactive)
REMARK    1  A    between atoms: O_1  and  C_3
REMARK    2  A    between atoms: C_2  and  C_8
REMARK    3  A    between atoms: C_5  and  C_9
REMARK    4  A    between atoms: C_8  and  C_10
REMARK    5  A    between atoms: C_8  and  C_11
REMARK                            x       y       z     vdW  Elec       q    Type
REMARK                         _______ _______ _______ _____ _____    ______ ____
ROOT
ATOM      1  C   UNL     1     -21.251  -2.984   5.046  0.00  0.00    +0.000 C 
ATOM      2  C   UNL     1     -21.065  -2.547   3.584  0.00  0.00    +0.000 C 
ATOM      3  C   UNL     1     -20.022  -3.755   5.547  0.00  0.00    +0.000 C 
ATOM      4  C   UNL     1     -19.489  -4.496   3.185  0.00  0.00    +0.000 C 
ATOM      5  C   UNL     1     -20.718  -3.734   2.681  0.00  0.00    +0.000 C 
ATOM      6  C   UNL     1     -19.684  -4.937   4.641  0.00  0.00    +0.000 C 
ATOM      7  H   UNL     1     -22.124  -3.652   5.094  0.00  0.00    +0.000 HD
ATOM      8  H   UNL     1     -20.266  -1.811   3.472  0.00  0.00    +0.000 HD
ATOM      9  H   UNL     1     -20.184  -4.148   6.555  0.00  0.00    +0.000 HD
ATOM     10  H   UNL     1     -19.132  -3.118   5.585  0.00  0.00    +0.000 HD
ATOM     11  H   UNL     1     -18.621  -3.823   3.140  0.00  0.00    +0.000 HD
ATOM     12  H   UNL     1     -20.551  -3.374   1.658  0.00  0.00    +0.000 HD
ATOM     13  H   UNL     1     -21.581  -4.411   2.616  0.00  0.00    +0.000 HD
ATOM     14  H   UNL     1     -18.775  -5.426   5.008  0.00  0.00    +0.000 HD
ATOM     15  H   UNL     1     -20.490  -5.679   4.702  0.00  0.00    +0.000 HD
ENDROOT
BRANCH   4  16
ATOM     16  C   UNL     1     -19.195  -5.699   2.292  0.00  0.00    +0.000 C 
ATOM     17  H   UNL     1     -18.379  -5.476   1.596  0.00  0.00    +0.000 HD
ATOM     18  H   UNL     1     -18.896  -6.565   2.893  0.00  0.00    +0.000 HD
ATOM     19  H   UNL     1     -20.074  -5.983   1.703  0.00  0.00    +0.000 HD
ENDBRANCH   4  16
BRANCH   2  20
ATOM     20  O   UNL     1     -22.270  -1.949   3.113  0.00  0.00    +0.000 OA
ATOM     21  H   UNL     1     -23.018  -2.423   3.515  0.00  0.00    +0.000 HD
ENDBRANCH   2  20
BRANCH   1  22
ATOM     22  C   UNL     1     -21.533  -1.785   5.955  0.00  0.00    +0.000 C 
ATOM     23  H   UNL     1     -22.541  -1.404   5.748  0.00  0.00    +0.000 HD
BRANCH  22  24
ATOM     24  C   UNL     1     -21.494  -2.207   7.421  0.00  0.00    +0.000 C 
ATOM     25  H   UNL     1     -21.060  -1.442   8.072  0.00  0.00    +0.000 HD
ATOM     26  H   UNL     1     -22.514  -2.385   7.783  0.00  0.00    +0.000 HD
ATOM     27  H   UNL     1     -20.934  -3.138   7.554  0.00  0.00    +0.000 HD
ENDBRANCH  22  24
BRANCH  22  28
ATOM     28  C   UNL     1     -20.530  -0.666   5.689  0.00  0.00    +0.000 C 
ATOM     29  H   UNL     1     -19.490  -1.002   5.681  0.00  0.00    +0.000 HD
ATOM     30  H   UNL     1     -20.596   0.069   6.501  0.00  0.00    +0.000 HD
ATOM     31  H   UNL     1     -20.733  -0.109   4.772  0.00  0.00    +0.000 HD
ENDBRANCH  22  28
ENDBRANCH   1  22
TORSDOF 5
ENDMDL
MODEL 10
REMARK VINA RESULT:    -4.499     14.037     15.486
REMARK INTER + INTRA:          -5.498
REMARK INTER:                  -5.288
REMARK INTRA:                  -0.209
REMARK UNBOUND:                -0.209
REMARK  Name = 16666
REMARK  5 active torsions:
REMARK  status: ('A' for Active; 'I' for Inactive)
REMARK    1  A    between atoms: O_1  and  C_3
REMARK    2  A    between atoms: C_2  and  C_8
REMARK    3  A    between atoms: C_5  and  C_9
REMARK    4  A    between atoms: C_8  and  C_10
REMARK    5  A    between atoms: C_8  and  C_11
REMARK                            x       y       z     vdW  Elec       q    Type
REMARK                         _______ _______ _______ _____ _____    ______ ____
ROOT
ATOM      1  C   UNL     1      -8.987  11.189   7.203  0.00  0.00    +0.000 C 
ATOM      2  C   UNL     1      -7.922  11.933   8.026  0.00  0.00    +0.000 C 
ATOM      3  C   UNL     1      -8.445  10.820   5.815  0.00  0.00    +0.000 C 
ATOM      4  C   UNL     1      -6.837  12.773   5.892  0.00  0.00    +0.000 C 
ATOM      5  C   UNL     1      -7.378  13.151   7.274  0.00  0.00    +0.000 C 
ATOM      6  C   UNL     1      -7.906  12.040   5.073  0.00  0.00    +0.000 C 
ATOM      7  H   UNL     1      -9.848  11.861   7.073  0.00  0.00    +0.000 HD
ATOM      8  H   UNL     1      -7.069  11.295   8.270  0.00  0.00    +0.000 HD
ATOM      9  H   UNL     1      -9.225  10.373   5.191  0.00  0.00    +0.000 HD
ATOM     10  H   UNL     1      -7.626  10.097   5.879  0.00  0.00    +0.000 HD
ATOM     11  H   UNL     1      -5.980  12.099   6.026  0.00  0.00    +0.000 HD
ATOM     12  H   UNL     1      -6.593  13.626   7.875  0.00  0.00    +0.000 HD
ATOM     13  H   UNL     1      -8.170  13.906   7.177  0.00  0.00    +0.000 HD
ATOM     14  H   UNL     1      -7.487  11.722   4.111  0.00  0.00    +0.000 HD
ATOM     15  H   UNL     1      -8.737  12.721   4.847  0.00  0.00    +0.000 HD
ENDROOT
BRANCH   4  16
ATOM     16  C   UNL     1      -6.344  14.014   5.148  0.00  0.00    +0.000 C 
ATOM     17  H   UNL     1      -5.750  13.731   4.272  0.00  0.00    +0.000 HD
ATOM     18  H   UNL     1      -7.188  14.618   4.800  0.00  0.00    +0.000 HD
ATOM     19  H   UNL     1      -5.719  14.643   5.791  0.00  0.00    +0.000 HD
ENDBRANCH   4  16
BRANCH   2  20
ATOM     20  O   UNL     1      -8.496  12.371   9.255  0.00  0.00    +0.000 OA
ATOM     21  H   UNL     1      -8.512  13.344   9.249  0.00  0.00    +0.000 HD
ENDBRANCH   2  20
BRANCH   1  22
ATOM     22  C   UNL     1      -9.480   9.936   7.932  0.00  0.00    +0.000 C 
ATOM     23  H   UNL     1      -9.632  10.171   8.993  0.00  0.00    +0.000 HD
BRANCH  22  24
ATOM     24  C   UNL     1     -10.823   9.484   7.365  0.00  0.00    +0.000 C 
ATOM     25  H   UNL     1     -11.267  10.219   6.687  0.00  0.00    +0.000 HD
ATOM     26  H   UNL     1     -10.691   8.562   6.787  0.00  0.00    +0.000 HD
ATOM     27  H   UNL     1     -11.540   9.268   8.164  0.00  0.00    +0.000 HD
ENDBRANCH  22  24
BRANCH  22  28
ATOM     28  C   UNL     1      -8.447   8.817   7.828  0.00  0.00    +0.000 C 
ATOM     29  H   UNL     1      -8.449   8.136   8.683  0.00  0.00    +0.000 HD
ATOM     30  H   UNL     1      -7.444   9.263   7.807  0.00  0.00    +0.000 HD
ATOM     31  H   UNL     1      -8.528   8.235   6.907  0.00  0.00    +0.000 HD
ENDBRANCH  22  28
ENDBRANCH   1  22
TORSDOF 5
ENDMDL
