MODEL 1
REMARK VINA RESULT:    -5.402      0.000      0.000
REMARK INTER + INTRA:          -6.275
REMARK INTER:                  -6.112
REMARK INTRA:                  -0.162
REMARK UNBOUND:                -0.083
REMARK  Name = 26447
REMARK  4 active torsions:
REMARK  status: ('A' for Active; 'I' for Inactive)
REMARK    1  A    between atoms: C_2  and  C_6
REMARK    2  A    between atoms: C_4  and  C_9
REMARK    3  A    between atoms: C_6  and  C_10
REMARK    4  A    between atoms: C_6  and  C_11
REMARK                            x       y       z     vdW  Elec       q    Type
REMARK                         _______ _______ _______ _____ _____    ______ ____
ROOT
ATOM      1  O   UNL     1       6.811   8.048   1.444  0.00  0.00    +0.000 OA
ATOM      2  C   UNL     1       5.853  10.067   0.565  0.00  0.00    +0.000 C 
ATOM      3  C   UNL     1       6.577  11.251  -0.079  0.00  0.00    +0.000 C 
ATOM      4  C   UNL     1       8.059   9.694  -1.454  0.00  0.00    +0.000 C 
ATOM      5  C   UNL     1       7.150  10.931  -1.461  0.00  0.00    +0.000 C 
ATOM      6  C   UNL     1       7.340   8.486  -0.852  0.00  0.00    +0.000 C 
ATOM      7  C   UNL     1       6.709   8.814   0.486  0.00  0.00    +0.000 C 
ATOM      8  H   UNL     1       5.726  10.303   1.631  0.00  0.00    +0.000 HD
ATOM      9  H   UNL     1       7.412  11.533   0.577  0.00  0.00    +0.000 HD
ATOM     10  H   UNL     1       5.956  12.150  -0.130  0.00  0.00    +0.000 HD
ATOM     11  H   UNL     1       8.306   9.455  -2.496  0.00  0.00    +0.000 HD
ATOM     12  H   UNL     1       6.325  10.769  -2.165  0.00  0.00    +0.000 HD
ATOM     13  H   UNL     1       7.705  11.801  -1.833  0.00  0.00    +0.000 HD
ATOM     14  H   UNL     1       8.036   7.650  -0.721  0.00  0.00    +0.000 HD
ATOM     15  H   UNL     1       6.542   8.143  -1.522  0.00  0.00    +0.000 HD
ENDROOT
BRANCH   4  16
ATOM     16  C   UNL     1       9.384   9.964  -0.734  0.00  0.00    +0.000 C 
ATOM     17  H   UNL     1       9.487   9.318   0.143  0.00  0.00    +0.000 HD
ATOM     18  H   UNL     1      10.250   9.797  -1.382  0.00  0.00    +0.000 HD
ATOM     19  H   UNL     1       9.426  11.002  -0.388  0.00  0.00    +0.000 HD
ENDBRANCH   4  16
BRANCH   2  20
ATOM     20  C   UNL     1       4.485   9.800  -0.057  0.00  0.00    +0.000 C 
ATOM     21  H   UNL     1       4.594   9.265  -1.009  0.00  0.00    +0.000 HD
BRANCH  20  22
ATOM     22  C   UNL     1       3.642   8.912   0.856  0.00  0.00    +0.000 C 
ATOM     23  H   UNL     1       4.263   8.398   1.599  0.00  0.00    +0.000 HD
ATOM     24  H   UNL     1       2.902   9.509   1.399  0.00  0.00    +0.000 HD
ATOM     25  H   UNL     1       3.084   8.158   0.293  0.00  0.00    +0.000 HD
ENDBRANCH  20  22
BRANCH  20  26
ATOM     26  C   UNL     1       3.760  11.112  -0.347  0.00  0.00    +0.000 C 
ATOM     27  H   UNL     1       2.672  10.988  -0.319  0.00  0.00    +0.000 HD
ATOM     28  H   UNL     1       4.023  11.487  -1.343  0.00  0.00    +0.000 HD
ATOM     29  H   UNL     1       4.043  11.901   0.356  0.00  0.00    +0.000 HD
ENDBRANCH  20  26
ENDBRANCH   2  20
TORSDOF 4
ENDMDL
MODEL 2
REMARK VINA RESULT:    -5.318      1.908      3.727
REMARK INTER + INTRA:          -6.178
REMARK INTER:                  -6.056
REMARK INTRA:                  -0.122
REMARK UNBOUND:                -0.083
REMARK  Name = 26447
REMARK  4 active torsions:
REMARK  status: ('A' for Active; 'I' for Inactive)
REMARK    1  A    between atoms: C_2  and  C_6
REMARK    2  A    between atoms: C_4  and  C_9
REMARK    3  A    between atoms: C_6  and  C_10
REMARK    4  A    between atoms: C_6  and  C_11
REMARK                            x       y       z     vdW  Elec       q    Type
REMARK                         _______ _______ _______ _____ _____    ______ ____
ROOT
ATOM      1  O   UNL     1       3.234   8.265   1.188  0.00  0.00    +0.000 OA
ATOM      2  C   UNL     1       5.519   8.838   0.718  0.00  0.00    +0.000 C 
ATOM      3  C   UNL     1       6.053   9.757  -0.382  0.00  0.00    +0.000 C 
ATOM      4  C   UNL     1       4.245  11.495   0.088  0.00  0.00    +0.000 C 
ATOM      5  C   UNL     1       5.740  11.235  -0.141  0.00  0.00    +0.000 C 
ATOM      6  C   UNL     1       3.699  10.616   1.214  0.00  0.00    +0.000 C 
ATOM      7  C   UNL     1       4.064   9.158   1.019  0.00  0.00    +0.000 C 
ATOM      8  H   UNL     1       5.547   7.811   0.328  0.00  0.00    +0.000 HD
ATOM      9  H   UNL     1       5.579   9.461  -1.329  0.00  0.00    +0.000 HD
ATOM     10  H   UNL     1       7.123   9.625  -0.562  0.00  0.00    +0.000 HD
ATOM     11  H   UNL     1       4.130  12.543   0.392  0.00  0.00    +0.000 HD
ATOM     12  H   UNL     1       6.305  11.586   0.731  0.00  0.00    +0.000 HD
ATOM     13  H   UNL     1       6.095  11.824  -0.995  0.00  0.00    +0.000 HD
ATOM     14  H   UNL     1       2.608  10.703   1.277  0.00  0.00    +0.000 HD
ATOM     15  H   UNL     1       4.107  10.936   2.181  0.00  0.00    +0.000 HD
ENDROOT
BRANCH   4  16
ATOM     16  C   UNL     1       3.430  11.316  -1.198  0.00  0.00    +0.000 C 
ATOM     17  H   UNL     1       3.648  10.349  -1.663  0.00  0.00    +0.000 HD
ATOM     18  H   UNL     1       2.352  11.372  -1.019  0.00  0.00    +0.000 HD
ATOM     19  H   UNL     1       3.685  12.096  -1.922  0.00  0.00    +0.000 HD
ENDBRANCH   4  16
BRANCH   2  20
ATOM     20  C   UNL     1       6.341   8.911   2.001  0.00  0.00    +0.000 C 
ATOM     21  H   UNL     1       5.973   9.717   2.649  0.00  0.00    +0.000 HD
BRANCH  20  22
ATOM     22  C   UNL     1       6.216   7.613   2.797  0.00  0.00    +0.000 C 
ATOM     23  H   UNL     1       6.674   6.772   2.264  0.00  0.00    +0.000 HD
ATOM     24  H   UNL     1       6.719   7.704   3.765  0.00  0.00    +0.000 HD
ATOM     25  H   UNL     1       5.173   7.361   3.007  0.00  0.00    +0.000 HD
ENDBRANCH  20  22
BRANCH  20  26
ATOM     26  C   UNL     1       7.806   9.208   1.686  0.00  0.00    +0.000 C 
ATOM     27  H   UNL     1       8.363   9.494   2.584  0.00  0.00    +0.000 HD
ATOM     28  H   UNL     1       7.887  10.034   0.971  0.00  0.00    +0.000 HD
ATOM     29  H   UNL     1       8.305   8.354   1.219  0.00  0.00    +0.000 HD
ENDBRANCH  20  26
ENDBRANCH   2  20
TORSDOF 4
ENDMDL
MODEL 3
REMARK VINA RESULT:    -5.119      1.884      2.980
REMARK INTER + INTRA:          -5.950
REMARK INTER:                  -5.789
REMARK INTRA:                  -0.161
REMARK UNBOUND:                -0.083
REMARK  Name = 26447
REMARK  4 active torsions:
REMARK  status: ('A' for Active; 'I' for Inactive)
REMARK    1  A    between atoms: C_2  and  C_6
REMARK    2  A    between atoms: C_4  and  C_9
REMARK    3  A    between atoms: C_6  and  C_10
REMARK    4  A    between atoms: C_6  and  C_11
REMARK                            x       y       z     vdW  Elec       q    Type
REMARK                         _______ _______ _______ _____ _____    ______ ____
ROOT
ATOM      1  O   UNL     1       3.623  10.374  -0.502  0.00  0.00    +0.000 OA
ATOM      2  C   UNL     1       5.028   8.892   0.761  0.00  0.00    +0.000 C 
ATOM      3  C   UNL     1       6.478   8.496   0.476  0.00  0.00    +0.000 C 
ATOM      4  C   UNL     1       7.112  10.910  -0.054  0.00  0.00    +0.000 C 
ATOM      5  C   UNL     1       7.474   9.632   0.715  0.00  0.00    +0.000 C 
ATOM      6  C   UNL     1       5.679  11.349   0.250  0.00  0.00    +0.000 C 
ATOM      7  C   UNL     1       4.693  10.210   0.082  0.00  0.00    +0.000 C 
ATOM      8  H   UNL     1       4.384   8.125   0.308  0.00  0.00    +0.000 HD
ATOM      9  H   UNL     1       6.546   8.204  -0.582  0.00  0.00    +0.000 HD
ATOM     10  H   UNL     1       6.789   7.603   1.024  0.00  0.00    +0.000 HD
ATOM     11  H   UNL     1       7.788  11.706   0.283  0.00  0.00    +0.000 HD
ATOM     12  H   UNL     1       7.516   9.856   1.788  0.00  0.00    +0.000 HD
ATOM     13  H   UNL     1       8.480   9.297   0.432  0.00  0.00    +0.000 HD
ATOM     14  H   UNL     1       5.382  12.175  -0.406  0.00  0.00    +0.000 HD
ATOM     15  H   UNL     1       5.601  11.709   1.283  0.00  0.00    +0.000 HD
ENDROOT
BRANCH   4  16
ATOM     16  C   UNL     1       7.334  10.751  -1.562  0.00  0.00    +0.000 C 
ATOM     17  H   UNL     1       7.860   9.817  -1.780  0.00  0.00    +0.000 HD
ATOM     18  H   UNL     1       6.394  10.751  -2.123  0.00  0.00    +0.000 HD
ATOM     19  H   UNL     1       7.947  11.574  -1.946  0.00  0.00    +0.000 HD
ENDBRANCH   4  16
BRANCH   2  20
ATOM     20  C   UNL     1       4.724   8.986   2.254  0.00  0.00    +0.000 C 
ATOM     21  H   UNL     1       5.125   9.919   2.670  0.00  0.00    +0.000 HD
BRANCH  20  22
ATOM     22  C   UNL     1       3.215   9.007   2.496  0.00  0.00    +0.000 C 
ATOM     23  H   UNL     1       2.888   8.123   3.055  0.00  0.00    +0.000 HD
ATOM     24  H   UNL     1       2.930   9.891   3.076  0.00  0.00    +0.000 HD
ATOM     25  H   UNL     1       2.651   9.051   1.560  0.00  0.00    +0.000 HD
ENDBRANCH  20  22
BRANCH  20  26
ATOM     26  C   UNL     1       5.372   7.829   3.010  0.00  0.00    +0.000 C 
ATOM     27  H   UNL     1       4.818   6.894   2.872  0.00  0.00    +0.000 HD
ATOM     28  H   UNL     1       5.402   8.039   4.085  0.00  0.00    +0.000 HD
ATOM     29  H   UNL     1       6.411   7.671   2.704  0.00  0.00    +0.000 HD
ENDBRANCH  20  26
ENDBRANCH   2  20
TORSDOF 4
ENDMDL
MODEL 4
REMARK VINA RESULT:    -5.039     13.421     14.747
REMARK INTER + INTRA:          -5.859
REMARK INTER:                  -5.696
REMARK INTRA:                  -0.163
REMARK UNBOUND:                -0.083
REMARK  Name = 26447
REMARK  4 active torsions:
REMARK  status: ('A' for Active; 'I' for Inactive)
REMARK    1  A    between atoms: C_2  and  C_6
REMARK    2  A    between atoms: C_4  and  C_9
REMARK    3  A    between atoms: C_6  and  C_10
REMARK    4  A    between atoms: C_6  and  C_11
REMARK                            x       y       z     vdW  Elec       q    Type
REMARK                         _______ _______ _______ _____ _____    ______ ____
ROOT
ATOM      1  O   UNL     1      -1.026  10.084 -10.204  0.00  0.00    +0.000 OA
ATOM      2  C   UNL     1      -1.013   8.473 -11.985  0.00  0.00    +0.000 C 
ATOM      3  C   UNL     1      -1.464   7.011 -11.938  0.00  0.00    +0.000 C 
ATOM      4  C   UNL     1      -3.563   7.624 -10.623  0.00  0.00    +0.000 C 
ATOM      5  C   UNL     1      -2.980   6.850 -11.813  0.00  0.00    +0.000 C 
ATOM      6  C   UNL     1      -3.160   9.098 -10.674  0.00  0.00    +0.000 C 
ATOM      7  C   UNL     1      -1.666   9.268 -10.866  0.00  0.00    +0.000 C 
ATOM      8  H   UNL     1       0.070   8.486 -11.799  0.00  0.00    +0.000 HD
ATOM      9  H   UNL     1      -1.001   6.544 -11.058  0.00  0.00    +0.000 HD
ATOM     10  H   UNL     1      -1.093   6.426 -12.783  0.00  0.00    +0.000 HD
ATOM     11  H   UNL     1      -4.657   7.571 -10.693  0.00  0.00    +0.000 HD
ATOM     12  H   UNL     1      -3.458   7.197 -12.738  0.00  0.00    +0.000 HD
ATOM     13  H   UNL     1      -3.224   5.785 -11.722  0.00  0.00    +0.000 HD
ATOM     14  H   UNL     1      -3.458   9.611  -9.752  0.00  0.00    +0.000 HD
ATOM     15  H   UNL     1      -3.663   9.604 -11.506  0.00  0.00    +0.000 HD
ENDROOT
BRANCH   4  16
ATOM     16  C   UNL     1      -3.174   6.990  -9.283  0.00  0.00    +0.000 C 
ATOM     17  H   UNL     1      -2.953   7.761  -8.539  0.00  0.00    +0.000 HD
ATOM     18  H   UNL     1      -3.964   6.348  -8.882  0.00  0.00    +0.000 HD
ATOM     19  H   UNL     1      -2.276   6.374  -9.399  0.00  0.00    +0.000 HD
ENDBRANCH   4  16
BRANCH   2  20
ATOM     20  C   UNL     1      -1.300   9.137 -13.329  0.00  0.00    +0.000 C 
ATOM     21  H   UNL     1      -2.370   9.362 -13.425  0.00  0.00    +0.000 HD
BRANCH  20  22
ATOM     22  C   UNL     1      -0.557  10.467 -13.442  0.00  0.00    +0.000 C 
ATOM     23  H   UNL     1       0.199  10.436 -14.235  0.00  0.00    +0.000 HD
ATOM     24  H   UNL     1      -1.253  11.279 -13.678  0.00  0.00    +0.000 HD
ATOM     25  H   UNL     1      -0.062  10.740 -12.505  0.00  0.00    +0.000 HD
ENDBRANCH  20  22
BRANCH  20  26
ATOM     26  C   UNL     1      -0.919   8.210 -14.480  0.00  0.00    +0.000 C 
ATOM     27  H   UNL     1      -0.108   8.629 -15.086  0.00  0.00    +0.000 HD
ATOM     28  H   UNL     1      -1.775   8.047 -15.144  0.00  0.00    +0.000 HD
ATOM     29  H   UNL     1      -0.618   7.220 -14.127  0.00  0.00    +0.000 HD
ENDBRANCH  20  26
ENDBRANCH   2  20
TORSDOF 4
ENDMDL
MODEL 5
REMARK VINA RESULT:    -4.925     13.613     14.893
REMARK INTER + INTRA:          -5.728
REMARK INTER:                  -5.570
REMARK INTRA:                  -0.158
REMARK UNBOUND:                -0.083
REMARK  Name = 26447
REMARK  4 active torsions:
REMARK  status: ('A' for Active; 'I' for Inactive)
REMARK    1  A    between atoms: C_2  and  C_6
REMARK    2  A    between atoms: C_4  and  C_9
REMARK    3  A    between atoms: C_6  and  C_10
REMARK    4  A    between atoms: C_6  and  C_11
REMARK                            x       y       z     vdW  Elec       q    Type
REMARK                         _______ _______ _______ _____ _____    ______ ____
ROOT
ATOM      1  O   UNL     1      -3.242   7.933 -13.102  0.00  0.00    +0.000 OA
ATOM      2  C   UNL     1      -3.616   7.070 -10.893  0.00  0.00    +0.000 C 
ATOM      3  C   UNL     1      -2.794   7.328  -9.628  0.00  0.00    +0.000 C 
ATOM      4  C   UNL     1      -2.638   9.821 -10.147  0.00  0.00    +0.000 C 
ATOM      5  C   UNL     1      -2.943   8.751  -9.089  0.00  0.00    +0.000 C 
ATOM      6  C   UNL     1      -3.482   9.608 -11.405  0.00  0.00    +0.000 C 
ATOM      7  C   UNL     1      -3.395   8.180 -11.907  0.00  0.00    +0.000 C 
ATOM      8  H   UNL     1      -3.238   6.142 -11.345  0.00  0.00    +0.000 HD
ATOM      9  H   UNL     1      -1.735   7.169  -9.877  0.00  0.00    +0.000 HD
ATOM     10  H   UNL     1      -2.999   6.603  -8.836  0.00  0.00    +0.000 HD
ATOM     11  H   UNL     1      -2.906  10.797  -9.722  0.00  0.00    +0.000 HD
ATOM     12  H   UNL     1      -3.966   8.892  -8.718  0.00  0.00    +0.000 HD
ATOM     13  H   UNL     1      -2.281   8.882  -8.224  0.00  0.00    +0.000 HD
ATOM     14  H   UNL     1      -3.160  10.285 -12.204  0.00  0.00    +0.000 HD
ATOM     15  H   UNL     1      -4.537   9.825 -11.199  0.00  0.00    +0.000 HD
ENDROOT
BRANCH   4  16
ATOM     16  C   UNL     1      -1.145   9.881 -10.486  0.00  0.00    +0.000 C 
ATOM     17  H   UNL     1      -0.994   9.889 -11.570  0.00  0.00    +0.000 HD
ATOM     18  H   UNL     1      -0.659  10.767 -10.068  0.00  0.00    +0.000 HD
ATOM     19  H   UNL     1      -0.628   9.002 -10.086  0.00  0.00    +0.000 HD
ENDBRANCH   4  16
BRANCH   2  20
ATOM     20  C   UNL     1      -5.108   6.919 -10.608  0.00  0.00    +0.000 C 
ATOM     21  H   UNL     1      -5.575   7.903 -10.471  0.00  0.00    +0.000 HD
BRANCH  20  22
ATOM     22  C   UNL     1      -5.817   6.253 -11.786  0.00  0.00    +0.000 C 
ATOM     23  H   UNL     1      -5.834   6.908 -12.664  0.00  0.00    +0.000 HD
ATOM     24  H   UNL     1      -5.305   5.328 -12.072  0.00  0.00    +0.000 HD
ATOM     25  H   UNL     1      -6.847   5.979 -11.541  0.00  0.00    +0.000 HD
ENDBRANCH  20  22
BRANCH  20  26
ATOM     26  C   UNL     1      -5.333   6.120  -9.326  0.00  0.00    +0.000 C 
ATOM     27  H   UNL     1      -5.279   5.041  -9.507  0.00  0.00    +0.000 HD
ATOM     28  H   UNL     1      -6.322   6.335  -8.906  0.00  0.00    +0.000 HD
ATOM     29  H   UNL     1      -4.611   6.383  -8.547  0.00  0.00    +0.000 HD
ENDBRANCH  20  26
ENDBRANCH   2  20
TORSDOF 4
ENDMDL
MODEL 6
REMARK VINA RESULT:    -4.739     13.397     14.505
REMARK INTER + INTRA:          -5.515
REMARK INTER:                  -5.462
REMARK INTRA:                  -0.053
REMARK UNBOUND:                -0.083
REMARK  Name = 26447
REMARK  4 active torsions:
REMARK  status: ('A' for Active; 'I' for Inactive)
REMARK    1  A    between atoms: C_2  and  C_6
REMARK    2  A    between atoms: C_4  and  C_9
REMARK    3  A    between atoms: C_6  and  C_10
REMARK    4  A    between atoms: C_6  and  C_11
REMARK                            x       y       z     vdW  Elec       q    Type
REMARK                         _______ _______ _______ _____ _____    ______ ____
ROOT
ATOM      1  O   UNL     1      -1.082  10.185 -11.188  0.00  0.00    +0.000 OA
ATOM      2  C   UNL     1      -2.944   8.696 -10.898  0.00  0.00    +0.000 C 
ATOM      3  C   UNL     1      -3.689   7.899 -11.971  0.00  0.00    +0.000 C 
ATOM      4  C   UNL     1      -1.500   7.200 -13.079  0.00  0.00    +0.000 C 
ATOM      5  C   UNL     1      -2.867   6.746 -12.548  0.00  0.00    +0.000 C 
ATOM      6  C   UNL     1      -0.719   7.962 -12.008  0.00  0.00    +0.000 C 
ATOM      7  C   UNL     1      -1.550   9.063 -11.381  0.00  0.00    +0.000 C 
ATOM      8  H   UNL     1      -3.491   9.637 -10.751  0.00  0.00    +0.000 HD
ATOM      9  H   UNL     1      -3.932   8.586 -12.793  0.00  0.00    +0.000 HD
ATOM     10  H   UNL     1      -4.660   7.531 -11.627  0.00  0.00    +0.000 HD
ATOM     11  H   UNL     1      -0.927   6.300 -13.339  0.00  0.00    +0.000 HD
ATOM     12  H   UNL     1      -2.718   5.984 -11.773  0.00  0.00    +0.000 HD
ATOM     13  H   UNL     1      -3.437   6.261 -13.350  0.00  0.00    +0.000 HD
ATOM     14  H   UNL     1       0.189   8.403 -12.434  0.00  0.00    +0.000 HD
ATOM     15  H   UNL     1      -0.406   7.283 -11.206  0.00  0.00    +0.000 HD
ENDROOT
BRANCH   4  16
ATOM     16  C   UNL     1      -1.631   8.026 -14.362  0.00  0.00    +0.000 C 
ATOM     17  H   UNL     1      -2.334   7.555 -15.057  0.00  0.00    +0.000 HD
ATOM     18  H   UNL     1      -1.979   9.045 -14.167  0.00  0.00    +0.000 HD
ATOM     19  H   UNL     1      -0.663   8.099 -14.869  0.00  0.00    +0.000 HD
ENDBRANCH   4  16
BRANCH   2  20
ATOM     20  C   UNL     1      -2.852   7.955  -9.567  0.00  0.00    +0.000 C 
ATOM     21  H   UNL     1      -1.899   7.415  -9.492  0.00  0.00    +0.000 HD
BRANCH  20  22
ATOM     22  C   UNL     1      -2.897   8.938  -8.399  0.00  0.00    +0.000 C 
ATOM     23  H   UNL     1      -3.799   8.798  -7.793  0.00  0.00    +0.000 HD
ATOM     24  H   UNL     1      -2.031   8.797  -7.743  0.00  0.00    +0.000 HD
ATOM     25  H   UNL     1      -2.867   9.978  -8.738  0.00  0.00    +0.000 HD
ENDBRANCH  20  22
BRANCH  20  26
ATOM     26  C   UNL     1      -3.974   6.927  -9.445  0.00  0.00    +0.000 C 
ATOM     27  H   UNL     1      -4.654   7.165  -8.620  0.00  0.00    +0.000 HD
ATOM     28  H   UNL     1      -3.564   5.928  -9.255  0.00  0.00    +0.000 HD
ATOM     29  H   UNL     1      -4.556   6.844 -10.368  0.00  0.00    +0.000 HD
ENDBRANCH  20  26
ENDBRANCH   2  20
TORSDOF 4
ENDMDL
MODEL 7
REMARK VINA RESULT:    -4.523     14.060     15.148
REMARK INTER + INTRA:          -5.267
REMARK INTER:                  -5.126
REMARK INTRA:                  -0.141
REMARK UNBOUND:                -0.083
REMARK  Name = 26447
REMARK  4 active torsions:
REMARK  status: ('A' for Active; 'I' for Inactive)
REMARK    1  A    between atoms: C_2  and  C_6
REMARK    2  A    between atoms: C_4  and  C_9
REMARK    3  A    between atoms: C_6  and  C_10
REMARK    4  A    between atoms: C_6  and  C_11
REMARK                            x       y       z     vdW  Elec       q    Type
REMARK                         _______ _______ _______ _____ _____    ______ ____
ROOT
ATOM      1  O   UNL     1      -2.179   6.707 -13.887  0.00  0.00    +0.000 OA
ATOM      2  C   UNL     1      -2.061   8.919 -12.960  0.00  0.00    +0.000 C 
ATOM      3  C   UNL     1      -2.878   9.502 -11.805  0.00  0.00    +0.000 C 
ATOM      4  C   UNL     1      -2.564   7.385 -10.415  0.00  0.00    +0.000 C 
ATOM      5  C   UNL     1      -2.501   8.919 -10.442  0.00  0.00    +0.000 C 
ATOM      6  C   UNL     1      -1.718   6.780 -11.536  0.00  0.00    +0.000 C 
ATOM      7  C   UNL     1      -2.036   7.401 -12.881  0.00  0.00    +0.000 C 
ATOM      8  H   UNL     1      -2.578   9.184 -13.892  0.00  0.00    +0.000 HD
ATOM      9  H   UNL     1      -3.936   9.271 -11.990  0.00  0.00    +0.000 HD
ATOM     10  H   UNL     1      -2.841  10.594 -11.768  0.00  0.00    +0.000 HD
ATOM     11  H   UNL     1      -2.145   7.050  -9.458  0.00  0.00    +0.000 HD
ATOM     12  H   UNL     1      -1.487   9.243 -10.178  0.00  0.00    +0.000 HD
ATOM     13  H   UNL     1      -3.166   9.333  -9.674  0.00  0.00    +0.000 HD
ATOM     14  H   UNL     1      -1.879   5.698 -11.599  0.00  0.00    +0.000 HD
ATOM     15  H   UNL     1      -0.651   6.939 -11.339  0.00  0.00    +0.000 HD
ENDROOT
BRANCH   4  16
ATOM     16  C   UNL     1      -4.006   6.871 -10.471  0.00  0.00    +0.000 C 
ATOM     17  H   UNL     1      -4.669   7.623 -10.911  0.00  0.00    +0.000 HD
ATOM     18  H   UNL     1      -4.098   5.952 -11.058  0.00  0.00    +0.000 HD
ATOM     19  H   UNL     1      -4.373   6.656  -9.462  0.00  0.00    +0.000 HD
ENDBRANCH   4  16
BRANCH   2  20
ATOM     20  C   UNL     1      -0.634   9.458 -13.005  0.00  0.00    +0.000 C 
ATOM     21  H   UNL     1      -0.059   9.099 -12.142  0.00  0.00    +0.000 HD
BRANCH  20  22
ATOM     22  C   UNL     1       0.090   8.962 -14.256  0.00  0.00    +0.000 C 
ATOM     23  H   UNL     1       0.915   8.288 -13.999  0.00  0.00    +0.000 HD
ATOM     24  H   UNL     1      -0.597   8.411 -14.907  0.00  0.00    +0.000 HD
ATOM     25  H   UNL     1       0.492   9.787 -14.851  0.00  0.00    +0.000 HD
ENDBRANCH  20  22
BRANCH  20  26
ATOM     26  C   UNL     1      -0.633  10.984 -12.956  0.00  0.00    +0.000 C 
ATOM     27  H   UNL     1      -1.200  11.362 -12.098  0.00  0.00    +0.000 HD
ATOM     28  H   UNL     1      -1.091  11.400 -13.861  0.00  0.00    +0.000 HD
ATOM     29  H   UNL     1       0.381  11.392 -12.915  0.00  0.00    +0.000 HD
ENDBRANCH  20  26
ENDBRANCH   2  20
TORSDOF 4
ENDMDL
MODEL 8
REMARK VINA RESULT:    -4.409     15.125     16.394
REMARK INTER + INTRA:          -5.137
REMARK INTER:                  -5.069
REMARK INTRA:                  -0.068
REMARK UNBOUND:                -0.083
REMARK  Name = 26447
REMARK  4 active torsions:
REMARK  status: ('A' for Active; 'I' for Inactive)
REMARK    1  A    between atoms: C_2  and  C_6
REMARK    2  A    between atoms: C_4  and  C_9
REMARK    3  A    between atoms: C_6  and  C_10
REMARK    4  A    between atoms: C_6  and  C_11
REMARK                            x       y       z     vdW  Elec       q    Type
REMARK                         _______ _______ _______ _____ _____    ______ ____
ROOT
ATOM      1  O   UNL     1      -8.918  13.611   8.092  0.00  0.00    +0.000 OA
ATOM      2  C   UNL     1      -8.904  11.504   6.939  0.00  0.00    +0.000 C 
ATOM      3  C   UNL     1      -8.800  11.255   5.433  0.00  0.00    +0.000 C 
ATOM      4  C   UNL     1      -6.943  12.988   5.198  0.00  0.00    +0.000 C 
ATOM      5  C   UNL     1      -7.416  11.567   4.862  0.00  0.00    +0.000 C 
ATOM      6  C   UNL     1      -6.998  13.245   6.705  0.00  0.00    +0.000 C 
ATOM      7  C   UNL     1      -8.345  12.873   7.291  0.00  0.00    +0.000 C 
ATOM      8  H   UNL     1      -9.973  11.518   7.194  0.00  0.00    +0.000 HD
ATOM      9  H   UNL     1      -9.528  11.908   4.931  0.00  0.00    +0.000 HD
ATOM     10  H   UNL     1      -9.102  10.243   5.149  0.00  0.00    +0.000 HD
ATOM     11  H   UNL     1      -5.896  13.077   4.879  0.00  0.00    +0.000 HD
ATOM     12  H   UNL     1      -6.691  10.844   5.255  0.00  0.00    +0.000 HD
ATOM     13  H   UNL     1      -7.432  11.426   3.774  0.00  0.00    +0.000 HD
ATOM     14  H   UNL     1      -6.796  14.300   6.923  0.00  0.00    +0.000 HD
ATOM     15  H   UNL     1      -6.233  12.654   7.222  0.00  0.00    +0.000 HD
ENDROOT
BRANCH   4  16
ATOM     16  C   UNL     1      -7.732  14.051   4.426  0.00  0.00    +0.000 C 
ATOM     17  H   UNL     1      -7.525  13.984   3.353  0.00  0.00    +0.000 HD
ATOM     18  H   UNL     1      -8.812  13.953   4.571  0.00  0.00    +0.000 HD
ATOM     19  H   UNL     1      -7.445  15.054   4.757  0.00  0.00    +0.000 HD
ENDBRANCH   4  16
BRANCH   2  20
ATOM     20  C   UNL     1      -8.204  10.430   7.766  0.00  0.00    +0.000 C 
ATOM     21  H   UNL     1      -7.147  10.353   7.481  0.00  0.00    +0.000 HD
BRANCH  20  22
ATOM     22  C   UNL     1      -8.236  10.787   9.251  0.00  0.00    +0.000 C 
ATOM     23  H   UNL     1      -8.924  11.617   9.448  0.00  0.00    +0.000 HD
ATOM     24  H   UNL     1      -8.570   9.931   9.847  0.00  0.00    +0.000 HD
ATOM     25  H   UNL     1      -7.247  11.064   9.627  0.00  0.00    +0.000 HD
ENDBRANCH  20  22
BRANCH  20  26
ATOM     26  C   UNL     1      -8.845   9.065   7.529  0.00  0.00    +0.000 C 
ATOM     27  H   UNL     1      -9.597   8.832   8.293  0.00  0.00    +0.000 HD
ATOM     28  H   UNL     1      -8.089   8.272   7.560  0.00  0.00    +0.000 HD
ATOM     29  H   UNL     1      -9.314   8.997   6.543  0.00  0.00    +0.000 HD
ENDBRANCH  20  26
ENDBRANCH   2  20
TORSDOF 4
ENDMDL
MODEL 9
REMARK VINA RESULT:    -4.385     14.954     16.861
REMARK INTER + INTRA:          -5.109
REMARK INTER:                  -5.122
REMARK INTRA:                   0.013
REMARK UNBOUND:                -0.083
REMARK  Name = 26447
REMARK  4 active torsions:
REMARK  status: ('A' for Active; 'I' for Inactive)
REMARK    1  A    between atoms: C_2  and  C_6
REMARK    2  A    between atoms: C_4  and  C_9
REMARK    3  A    between atoms: C_6  and  C_10
REMARK    4  A    between atoms: C_6  and  C_11
REMARK                            x       y       z     vdW  Elec       q    Type
REMARK                         _______ _______ _______ _____ _____    ______ ____
ROOT
ATOM      1  O   UNL     1     -10.361  11.157   5.857  0.00  0.00    +0.000 OA
ATOM      2  C   UNL     1      -8.434  12.388   6.588  0.00  0.00    +0.000 C 
ATOM      3  C   UNL     1      -8.009  12.710   8.023  0.00  0.00    +0.000 C 
ATOM      4  C   UNL     1      -8.519  10.330   8.787  0.00  0.00    +0.000 C 
ATOM      5  C   UNL     1      -7.511  11.487   8.795  0.00  0.00    +0.000 C 
ATOM      6  C   UNL     1      -8.926   9.963   7.359  0.00  0.00    +0.000 C 
ATOM      7  C   UNL     1      -9.355  11.179   6.565  0.00  0.00    +0.000 C 
ATOM      8  H   UNL     1      -9.017  13.244   6.221  0.00  0.00    +0.000 HD
ATOM      9  H   UNL     1      -8.884  13.111   8.552  0.00  0.00    +0.000 HD
ATOM     10  H   UNL     1      -7.269  13.513   8.075  0.00  0.00    +0.000 HD
ATOM     11  H   UNL     1      -8.028   9.456   9.234  0.00  0.00    +0.000 HD
ATOM     12  H   UNL     1      -6.565  11.144   8.358  0.00  0.00    +0.000 HD
ATOM     13  H   UNL     1      -7.284  11.779   9.828  0.00  0.00    +0.000 HD
ATOM     14  H   UNL     1      -9.747   9.237   7.368  0.00  0.00    +0.000 HD
ATOM     15  H   UNL     1      -8.085   9.498   6.830  0.00  0.00    +0.000 HD
ENDROOT
BRANCH   4  16
ATOM     16  C   UNL     1      -9.747  10.637   9.651  0.00  0.00    +0.000 C 
ATOM     17  H   UNL     1     -10.617  10.858   9.023  0.00  0.00    +0.000 HD
ATOM     18  H   UNL     1     -10.009   9.806  10.313  0.00  0.00    +0.000 HD
ATOM     19  H   UNL     1      -9.562  11.514  10.280  0.00  0.00    +0.000 HD
ENDBRANCH   4  16
BRANCH   2  20
ATOM     20  C   UNL     1      -7.247  12.153   5.659  0.00  0.00    +0.000 C 
ATOM     21  H   UNL     1      -6.534  11.454   6.115  0.00  0.00    +0.000 HD
BRANCH  20  22
ATOM     22  C   UNL     1      -7.707  11.520   4.346  0.00  0.00    +0.000 C 
ATOM     23  H   UNL     1      -7.266  12.028   3.481  0.00  0.00    +0.000 HD
ATOM     24  H   UNL     1      -7.410  10.467   4.300  0.00  0.00    +0.000 HD
ATOM     25  H   UNL     1      -8.796  11.544   4.240  0.00  0.00    +0.000 HD
ENDBRANCH  20  22
BRANCH  20  26
ATOM     26  C   UNL     1      -6.503  13.459   5.392  0.00  0.00    +0.000 C 
ATOM     27  H   UNL     1      -5.465  13.280   5.092  0.00  0.00    +0.000 HD
ATOM     28  H   UNL     1      -6.483  14.082   6.294  0.00  0.00    +0.000 HD
ATOM     29  H   UNL     1      -6.994  14.060   4.621  0.00  0.00    +0.000 HD
ENDBRANCH  20  26
ENDBRANCH   2  20
TORSDOF 4
ENDMDL
MODEL 10
REMARK VINA RESULT:    -4.365     17.342     18.267
REMARK INTER + INTRA:          -5.086
REMARK INTER:                  -5.003
REMARK INTRA:                  -0.083
REMARK UNBOUND:                -0.083
REMARK  Name = 26447
REMARK  4 active torsions:
REMARK  status: ('A' for Active; 'I' for Inactive)
REMARK    1  A    between atoms: C_2  and  C_6
REMARK    2  A    between atoms: C_4  and  C_9
REMARK    3  A    between atoms: C_6  and  C_10
REMARK    4  A    between atoms: C_6  and  C_11
REMARK                            x       y       z     vdW  Elec       q    Type
REMARK                         _______ _______ _______ _____ _____    ______ ____
ROOT
ATOM      1  O   UNL     1       2.665   1.311 -16.030  0.00  0.00    +0.000 OA
ATOM      2  C   UNL     1       2.253  -0.709 -14.799  0.00  0.00    +0.000 C 
ATOM      3  C   UNL     1       2.947  -2.065 -14.952  0.00  0.00    +0.000 C 
ATOM      4  C   UNL     1       5.241  -0.959 -15.094  0.00  0.00    +0.000 C 
ATOM      5  C   UNL     1       4.392  -2.065 -14.452  0.00  0.00    +0.000 C 
ATOM      6  C   UNL     1       4.587   0.412 -14.915  0.00  0.00    +0.000 C 
ATOM      7  C   UNL     1       3.134   0.403 -15.344  0.00  0.00    +0.000 C 
ATOM      8  H   UNL     1       1.346  -0.734 -15.419  0.00  0.00    +0.000 HD
ATOM      9  H   UNL     1       2.958  -2.319 -16.021  0.00  0.00    +0.000 HD
ATOM     10  H   UNL     1       2.389  -2.881 -14.485  0.00  0.00    +0.000 HD
ATOM     11  H   UNL     1       6.211  -0.941 -14.579  0.00  0.00    +0.000 HD
ATOM     12  H   UNL     1       4.398  -1.937 -13.363  0.00  0.00    +0.000 HD
ATOM     13  H   UNL     1       4.843  -3.045 -14.649  0.00  0.00    +0.000 HD
ATOM     14  H   UNL     1       5.123   1.172 -15.495  0.00  0.00    +0.000 HD
ATOM     15  H   UNL     1       4.624   0.719 -13.863  0.00  0.00    +0.000 HD
ENDROOT
BRANCH   4  16
ATOM     16  C   UNL     1       5.530  -1.246 -16.571  0.00  0.00    +0.000 C 
ATOM     17  H   UNL     1       5.776  -0.322 -17.105  0.00  0.00    +0.000 HD
ATOM     18  H   UNL     1       6.361  -1.945 -16.705  0.00  0.00    +0.000 HD
ATOM     19  H   UNL     1       4.650  -1.683 -17.054  0.00  0.00    +0.000 HD
ENDBRANCH   4  16
BRANCH   2  20
ATOM     20  C   UNL     1       1.865  -0.403 -13.355  0.00  0.00    +0.000 C 
ATOM     21  H   UNL     1       2.753  -0.408 -12.709  0.00  0.00    +0.000 HD
BRANCH  20  22
ATOM     22  C   UNL     1       1.248   0.991 -13.247  0.00  0.00    +0.000 C 
ATOM     23  H   UNL     1       0.396   1.104 -13.926  0.00  0.00    +0.000 HD
ATOM     24  H   UNL     1       0.888   1.175 -12.229  0.00  0.00    +0.000 HD
ATOM     25  H   UNL     1       1.974   1.778 -13.471  0.00  0.00    +0.000 HD
ENDBRANCH  20  22
BRANCH  20  26
ATOM     26  C   UNL     1       0.901  -1.459 -12.820  0.00  0.00    +0.000 C 
ATOM     27  H   UNL     1       0.686  -2.228 -13.571  0.00  0.00    +0.000 HD
ATOM     28  H   UNL     1      -0.053  -1.002 -12.536  0.00  0.00    +0.000 HD
ATOM     29  H   UNL     1       1.285  -1.945 -11.918  0.00  0.00    +0.000 HD
ENDBRANCH  20  26
ENDBRANCH   2  20
TORSDOF 4
ENDMDL
