MODEL 1
REMARK VINA RESULT:    -4.117      0.000      0.000
REMARK INTER + INTRA:          -5.735
REMARK INTER:                  -5.499
REMARK INTRA:                  -0.235
REMARK UNBOUND:                -0.174
REMARK  Name = 7824
REMARK  7 active torsions:
REMARK  status: ('A' for Active; 'I' for Inactive)
REMARK    1  A    between atoms: O_1  and  C_8
REMARK    2  A    between atoms: O_1  and  C_9
REMARK    3  A    between atoms: C_3  and  C_4
REMARK    4  A    between atoms: C_3  and  C_5
REMARK    5  A    between atoms: C_4  and  C_6
REMARK    6  A    between atoms: C_5  and  C_7
REMARK    7  A    between atoms: C_6  and  C_8
REMARK                            x       y       z     vdW  Elec       q    Type
REMARK                         _______ _______ _______ _____ _____    ______ ____
ROOT
ATOM      1  C   UNL     1       5.335   8.517   0.727  0.00  0.00    +0.000 C 
ATOM      2  H   UNL     1       5.210   7.774  -0.071  0.00  0.00    +0.000 HD
ATOM      3  H   UNL     1       4.866   8.092   1.623  0.00  0.00    +0.000 HD
ENDROOT
BRANCH   1   4
ATOM      4  C   UNL     1       6.828   8.740   0.990  0.00  0.00    +0.000 C 
ATOM      5  H   UNL     1       7.117   9.740   0.644  0.00  0.00    +0.000 HD
ATOM      6  H   UNL     1       7.412   8.015   0.413  0.00  0.00    +0.000 HD
BRANCH   4   7
ATOM      7  C   UNL     1       7.155   8.595   2.477  0.00  0.00    +0.000 C 
ATOM      8  H   UNL     1       8.203   8.295   2.600  0.00  0.00    +0.000 HD
ATOM      9  H   UNL     1       7.032   9.561   2.982  0.00  0.00    +0.000 HD
BRANCH   7  10
ATOM     10  C   UNL     1       6.258   7.568   3.148  0.00  0.00    +0.000 C 
ATOM     11  H   UNL     1       5.484   7.214   2.460  0.00  0.00    +0.000 HD
ATOM     12  H   UNL     1       6.837   6.703   3.487  0.00  0.00    +0.000 HD
ATOM     13  H   UNL     1       5.762   8.008   4.019  0.00  0.00    +0.000 HD
ENDBRANCH   7  10
ENDBRANCH   4   7
ENDBRANCH   1   4
BRANCH   1  14
ATOM     14  C   UNL     1       4.613   9.805   0.336  0.00  0.00    +0.000 C 
ATOM     15  H   UNL     1       5.346  10.599   0.160  0.00  0.00    +0.000 HD
ATOM     16  H   UNL     1       4.046   9.636  -0.589  0.00  0.00    +0.000 HD
BRANCH  14  18
ATOM     17  O   UNL     1       3.225   9.620   2.325  0.00  0.00    +0.000 OA
ATOM     18  C   UNL     1       3.646  10.292   1.393  0.00  0.00    +0.000 C 
BRANCH  18  19
ATOM     19  O   UNL     1       3.301  11.585   1.118  0.00  0.00    +0.000 OA
BRANCH  19  20
ATOM     20  C   UNL     1       3.193  11.912  -0.271  0.00  0.00    +0.000 C 
ATOM     21  H   UNL     1       2.140  12.099  -0.495  0.00  0.00    +0.000 HD
ATOM     22  H   UNL     1       3.538  11.074  -0.885  0.00  0.00    +0.000 HD
ATOM     23  H   UNL     1       3.766  12.817  -0.493  0.00  0.00    +0.000 HD
ENDBRANCH  19  20
ENDBRANCH  18  19
ENDBRANCH  14  18
ENDBRANCH   1  14
TORSDOF 7
ENDMDL
MODEL 2
REMARK VINA RESULT:    -4.037      1.603      2.197
REMARK INTER + INTRA:          -5.627
REMARK INTER:                  -5.509
REMARK INTRA:                  -0.118
REMARK UNBOUND:                -0.174
REMARK  Name = 7824
REMARK  7 active torsions:
REMARK  status: ('A' for Active; 'I' for Inactive)
REMARK    1  A    between atoms: O_1  and  C_8
REMARK    2  A    between atoms: O_1  and  C_9
REMARK    3  A    between atoms: C_3  and  C_4
REMARK    4  A    between atoms: C_3  and  C_5
REMARK    5  A    between atoms: C_4  and  C_6
REMARK    6  A    between atoms: C_5  and  C_7
REMARK    7  A    between atoms: C_6  and  C_8
REMARK                            x       y       z     vdW  Elec       q    Type
REMARK                         _______ _______ _______ _____ _____    ______ ____
ROOT
ATOM      1  C   UNL     1       5.022   7.981   2.627  0.00  0.00    +0.000 C 
ATOM      2  H   UNL     1       5.982   8.512   2.610  0.00  0.00    +0.000 HD
ATOM      3  H   UNL     1       4.983   7.380   1.709  0.00  0.00    +0.000 HD
ENDROOT
BRANCH   1   4
ATOM      4  C   UNL     1       4.970   7.054   3.846  0.00  0.00    +0.000 C 
ATOM      5  H   UNL     1       4.642   6.054   3.535  0.00  0.00    +0.000 HD
ATOM      6  H   UNL     1       4.229   7.431   4.559  0.00  0.00    +0.000 HD
BRANCH   4   7
ATOM      7  C   UNL     1       6.336   6.959   4.527  0.00  0.00    +0.000 C 
ATOM      8  H   UNL     1       6.292   6.238   5.352  0.00  0.00    +0.000 HD
ATOM      9  H   UNL     1       7.083   6.590   3.814  0.00  0.00    +0.000 HD
BRANCH   7  10
ATOM     10  C   UNL     1       6.787   8.307   5.063  0.00  0.00    +0.000 C 
ATOM     11  H   UNL     1       7.222   8.921   4.267  0.00  0.00    +0.000 HD
ATOM     12  H   UNL     1       5.947   8.857   5.499  0.00  0.00    +0.000 HD
ATOM     13  H   UNL     1       7.545   8.173   5.841  0.00  0.00    +0.000 HD
ENDBRANCH   7  10
ENDBRANCH   4   7
ENDBRANCH   1   4
BRANCH   1  14
ATOM     14  C   UNL     1       3.882   8.998   2.619  0.00  0.00    +0.000 C 
ATOM     15  H   UNL     1       2.954   8.512   2.938  0.00  0.00    +0.000 HD
ATOM     16  H   UNL     1       4.116   9.809   3.318  0.00  0.00    +0.000 HD
BRANCH  14  18
ATOM     17  O   UNL     1       3.779   9.031   0.188  0.00  0.00    +0.000 OA
ATOM     18  C   UNL     1       3.639   9.611   1.257  0.00  0.00    +0.000 C 
BRANCH  18  19
ATOM     19  O   UNL     1       3.271  10.916   1.417  0.00  0.00    +0.000 OA
BRANCH  19  20
ATOM     20  C   UNL     1       3.374  11.734   0.246  0.00  0.00    +0.000 C 
ATOM     21  H   UNL     1       4.278  11.440  -0.295  0.00  0.00    +0.000 HD
ATOM     22  H   UNL     1       3.461  12.788   0.527  0.00  0.00    +0.000 HD
ATOM     23  H   UNL     1       2.508  11.576  -0.404  0.00  0.00    +0.000 HD
ENDBRANCH  19  20
ENDBRANCH  18  19
ENDBRANCH  14  18
ENDBRANCH   1  14
TORSDOF 7
ENDMDL
MODEL 3
REMARK VINA RESULT:    -3.977     13.509     14.433
REMARK INTER + INTRA:          -5.547
REMARK INTER:                  -5.365
REMARK INTRA:                  -0.182
REMARK UNBOUND:                -0.174
REMARK  Name = 7824
REMARK  7 active torsions:
REMARK  status: ('A' for Active; 'I' for Inactive)
REMARK    1  A    between atoms: O_1  and  C_8
REMARK    2  A    between atoms: O_1  and  C_9
REMARK    3  A    between atoms: C_3  and  C_4
REMARK    4  A    between atoms: C_3  and  C_5
REMARK    5  A    between atoms: C_4  and  C_6
REMARK    6  A    between atoms: C_5  and  C_7
REMARK    7  A    between atoms: C_6  and  C_8
REMARK                            x       y       z     vdW  Elec       q    Type
REMARK                         _______ _______ _______ _____ _____    ______ ____
ROOT
ATOM      1  C   UNL     1      -2.650   9.442 -10.295  0.00  0.00    +0.000 C 
ATOM      2  H   UNL     1      -2.894   8.771 -11.129  0.00  0.00    +0.000 HD
ATOM      3  H   UNL     1      -3.404  10.239 -10.306  0.00  0.00    +0.000 HD
ENDROOT
BRANCH   1   4
ATOM      4  C   UNL     1      -2.741   8.671  -8.974  0.00  0.00    +0.000 C 
ATOM      5  H   UNL     1      -3.422   9.192  -8.290  0.00  0.00    +0.000 HD
ATOM      6  H   UNL     1      -1.755   8.650  -8.496  0.00  0.00    +0.000 HD
BRANCH   4   7
ATOM      7  C   UNL     1      -3.232   7.241  -9.201  0.00  0.00    +0.000 C 
ATOM      8  H   UNL     1      -2.847   6.585  -8.411  0.00  0.00    +0.000 HD
ATOM      9  H   UNL     1      -4.327   7.210  -9.143  0.00  0.00    +0.000 HD
BRANCH   7  10
ATOM     10  C   UNL     1      -2.791   6.707 -10.554  0.00  0.00    +0.000 C 
ATOM     11  H   UNL     1      -2.445   7.519 -11.202  0.00  0.00    +0.000 HD
ATOM     12  H   UNL     1      -1.976   5.985 -10.444  0.00  0.00    +0.000 HD
ATOM     13  H   UNL     1      -3.625   6.206 -11.054  0.00  0.00    +0.000 HD
ENDBRANCH   7  10
ENDBRANCH   4   7
ENDBRANCH   1   4
BRANCH   1  14
ATOM     14  C   UNL     1      -1.266  10.048 -10.523  0.00  0.00    +0.000 C 
ATOM     15  H   UNL     1      -1.332  11.140 -10.485  0.00  0.00    +0.000 HD
ATOM     16  H   UNL     1      -0.587   9.707  -9.732  0.00  0.00    +0.000 HD
BRANCH  14  18
ATOM     17  O   UNL     1      -0.226   8.558 -12.140  0.00  0.00    +0.000 OA
ATOM     18  C   UNL     1      -0.659   9.666 -11.856  0.00  0.00    +0.000 C 
BRANCH  18  19
ATOM     19  O   UNL     1      -0.649  10.763 -12.670  0.00  0.00    +0.000 OA
BRANCH  19  20
ATOM     20  C   UNL     1      -0.478  10.493 -14.065  0.00  0.00    +0.000 C 
ATOM     21  H   UNL     1       0.333  11.125 -14.436  0.00  0.00    +0.000 HD
ATOM     22  H   UNL     1      -1.393  10.738 -14.613  0.00  0.00    +0.000 HD
ATOM     23  H   UNL     1      -0.204   9.444 -14.218  0.00  0.00    +0.000 HD
ENDBRANCH  19  20
ENDBRANCH  18  19
ENDBRANCH  14  18
ENDBRANCH   1  14
TORSDOF 7
ENDMDL
MODEL 4
REMARK VINA RESULT:    -3.934     27.539     28.447
REMARK INTER + INTRA:          -5.488
REMARK INTER:                  -5.311
REMARK INTRA:                  -0.177
REMARK UNBOUND:                -0.174
REMARK  Name = 7824
REMARK  7 active torsions:
REMARK  status: ('A' for Active; 'I' for Inactive)
REMARK    1  A    between atoms: O_1  and  C_8
REMARK    2  A    between atoms: O_1  and  C_9
REMARK    3  A    between atoms: C_3  and  C_4
REMARK    4  A    between atoms: C_3  and  C_5
REMARK    5  A    between atoms: C_4  and  C_6
REMARK    6  A    between atoms: C_5  and  C_7
REMARK    7  A    between atoms: C_6  and  C_8
REMARK                            x       y       z     vdW  Elec       q    Type
REMARK                         _______ _______ _______ _____ _____    ______ ____
ROOT
ATOM      1  C   UNL     1     -20.820  -2.850   4.469  0.00  0.00    +0.000 C 
ATOM      2  H   UNL     1     -21.843  -2.997   4.102  0.00  0.00    +0.000 HD
ATOM      3  H   UNL     1     -20.185  -2.730   3.582  0.00  0.00    +0.000 HD
ENDROOT
BRANCH   1   4
ATOM      4  C   UNL     1     -20.757  -1.575   5.316  0.00  0.00    +0.000 C 
ATOM      5  H   UNL     1     -21.686  -1.004   5.192  0.00  0.00    +0.000 HD
ATOM      6  H   UNL     1     -19.937  -0.941   4.961  0.00  0.00    +0.000 HD
BRANCH   4   7
ATOM      7  C   UNL     1     -20.548  -1.902   6.795  0.00  0.00    +0.000 C 
ATOM      8  H   UNL     1     -21.154  -2.772   7.074  0.00  0.00    +0.000 HD
ATOM      9  H   UNL     1     -19.499  -2.167   6.974  0.00  0.00    +0.000 HD
BRANCH   7  10
ATOM     10  C   UNL     1     -20.920  -0.727   7.685  0.00  0.00    +0.000 C 
ATOM     11  H   UNL     1     -21.959  -0.805   8.023  0.00  0.00    +0.000 HD
ATOM     12  H   UNL     1     -20.274  -0.683   8.568  0.00  0.00    +0.000 HD
ATOM     13  H   UNL     1     -20.812   0.214   7.137  0.00  0.00    +0.000 HD
ENDBRANCH   7  10
ENDBRANCH   4   7
ENDBRANCH   1   4
BRANCH   1  14
ATOM     14  C   UNL     1     -20.379  -4.089   5.247  0.00  0.00    +0.000 C 
ATOM     15  H   UNL     1     -20.009  -3.791   6.234  0.00  0.00    +0.000 HD
ATOM     16  H   UNL     1     -21.239  -4.757   5.380  0.00  0.00    +0.000 HD
BRANCH  14  18
ATOM     17  O   UNL     1     -18.484  -5.607   5.116  0.00  0.00    +0.000 OA
ATOM     18  C   UNL     1     -19.283  -4.869   4.556  0.00  0.00    +0.000 C 
BRANCH  18  19
ATOM     19  O   UNL     1     -19.314  -4.590   3.219  0.00  0.00    +0.000 OA
BRANCH  19  20
ATOM     20  C   UNL     1     -18.163  -5.004   2.477  0.00  0.00    +0.000 C 
ATOM     21  H   UNL     1     -18.500  -5.376   1.506  0.00  0.00    +0.000 HD
ATOM     22  H   UNL     1     -17.644  -5.813   3.001  0.00  0.00    +0.000 HD
ATOM     23  H   UNL     1     -17.491  -4.156   2.313  0.00  0.00    +0.000 HD
ENDBRANCH  19  20
ENDBRANCH  18  19
ENDBRANCH  14  18
ENDBRANCH   1  14
TORSDOF 7
ENDMDL
MODEL 5
REMARK VINA RESULT:    -3.933     13.738     14.827
REMARK INTER + INTRA:          -5.486
REMARK INTER:                  -5.285
REMARK INTRA:                  -0.201
REMARK UNBOUND:                -0.174
REMARK  Name = 7824
REMARK  7 active torsions:
REMARK  status: ('A' for Active; 'I' for Inactive)
REMARK    1  A    between atoms: O_1  and  C_8
REMARK    2  A    between atoms: O_1  and  C_9
REMARK    3  A    between atoms: C_3  and  C_4
REMARK    4  A    between atoms: C_3  and  C_5
REMARK    5  A    between atoms: C_4  and  C_6
REMARK    6  A    between atoms: C_5  and  C_7
REMARK    7  A    between atoms: C_6  and  C_8
REMARK                            x       y       z     vdW  Elec       q    Type
REMARK                         _______ _______ _______ _____ _____    ______ ____
ROOT
ATOM      1  C   UNL     1      -3.444   7.492  -9.090  0.00  0.00    +0.000 C 
ATOM      2  H   UNL     1      -3.450   6.820  -8.223  0.00  0.00    +0.000 HD
ATOM      3  H   UNL     1      -4.493   7.729  -9.307  0.00  0.00    +0.000 HD
ENDROOT
BRANCH   1   4
ATOM      4  C   UNL     1      -2.693   8.780  -8.735  0.00  0.00    +0.000 C 
ATOM      5  H   UNL     1      -1.655   8.541  -8.476  0.00  0.00    +0.000 HD
ATOM      6  H   UNL     1      -3.151   9.237  -7.851  0.00  0.00    +0.000 HD
BRANCH   4   7
ATOM      7  C   UNL     1      -2.718   9.774  -9.898  0.00  0.00    +0.000 C 
ATOM      8  H   UNL     1      -3.321   9.370 -10.720  0.00  0.00    +0.000 HD
ATOM      9  H   UNL     1      -3.192  10.710  -9.577  0.00  0.00    +0.000 HD
BRANCH   7  10
ATOM     10  C   UNL     1      -1.317  10.075 -10.404  0.00  0.00    +0.000 C 
ATOM     11  H   UNL     1      -0.861   9.185 -10.850  0.00  0.00    +0.000 HD
ATOM     12  H   UNL     1      -1.336  10.866 -11.161  0.00  0.00    +0.000 HD
ATOM     13  H   UNL     1      -0.679  10.408  -9.581  0.00  0.00    +0.000 HD
ENDBRANCH   7  10
ENDBRANCH   4   7
ENDBRANCH   1   4
BRANCH   1  14
ATOM     14  C   UNL     1      -2.828   6.769 -10.286  0.00  0.00    +0.000 C 
ATOM     15  H   UNL     1      -1.861   7.221 -10.531  0.00  0.00    +0.000 HD
ATOM     16  H   UNL     1      -2.670   5.714 -10.030  0.00  0.00    +0.000 HD
BRANCH  14  18
ATOM     17  O   UNL     1      -4.916   6.853 -11.531  0.00  0.00    +0.000 OA
ATOM     18  C   UNL     1      -3.693   6.824 -11.527  0.00  0.00    +0.000 C 
BRANCH  18  19
ATOM     19  O   UNL     1      -2.888   6.804 -12.631  0.00  0.00    +0.000 OA
BRANCH  19  20
ATOM     20  C   UNL     1      -1.486   6.934 -12.374  0.00  0.00    +0.000 C 
ATOM     21  H   UNL     1      -1.358   7.601 -11.517  0.00  0.00    +0.000 HD
ATOM     22  H   UNL     1      -0.982   7.375 -13.239  0.00  0.00    +0.000 HD
ATOM     23  H   UNL     1      -1.053   5.960 -12.128  0.00  0.00    +0.000 HD
ENDBRANCH  19  20
ENDBRANCH  18  19
ENDBRANCH  14  18
ENDBRANCH   1  14
TORSDOF 7
ENDMDL
MODEL 6
REMARK VINA RESULT:    -3.892     13.550     15.039
REMARK INTER + INTRA:          -5.431
REMARK INTER:                  -5.231
REMARK INTRA:                  -0.201
REMARK UNBOUND:                -0.174
REMARK  Name = 7824
REMARK  7 active torsions:
REMARK  status: ('A' for Active; 'I' for Inactive)
REMARK    1  A    between atoms: O_1  and  C_8
REMARK    2  A    between atoms: O_1  and  C_9
REMARK    3  A    between atoms: C_3  and  C_4
REMARK    4  A    between atoms: C_3  and  C_5
REMARK    5  A    between atoms: C_4  and  C_6
REMARK    6  A    between atoms: C_5  and  C_7
REMARK    7  A    between atoms: C_6  and  C_8
REMARK                            x       y       z     vdW  Elec       q    Type
REMARK                         _______ _______ _______ _____ _____    ______ ____
ROOT
ATOM      1  C   UNL     1      -2.807   7.334 -11.502  0.00  0.00    +0.000 C 
ATOM      2  H   UNL     1      -3.697   7.043 -12.073  0.00  0.00    +0.000 HD
ATOM      3  H   UNL     1      -2.836   8.428 -11.417  0.00  0.00    +0.000 HD
ENDROOT
BRANCH   1   4
ATOM      4  C   UNL     1      -2.869   6.713 -10.103  0.00  0.00    +0.000 C 
ATOM      5  H   UNL     1      -1.904   6.251  -9.861  0.00  0.00    +0.000 HD
ATOM      6  H   UNL     1      -3.622   5.916 -10.091  0.00  0.00    +0.000 HD
BRANCH   4   7
ATOM      7  C   UNL     1      -3.217   7.762  -9.046  0.00  0.00    +0.000 C 
ATOM      8  H   UNL     1      -4.302   7.914  -9.015  0.00  0.00    +0.000 HD
ATOM      9  H   UNL     1      -2.910   7.408  -8.054  0.00  0.00    +0.000 HD
BRANCH   7  10
ATOM     10  C   UNL     1      -2.533   9.089  -9.331  0.00  0.00    +0.000 C 
ATOM     11  H   UNL     1      -1.711   9.265  -8.629  0.00  0.00    +0.000 HD
ATOM     12  H   UNL     1      -2.127   9.111 -10.347  0.00  0.00    +0.000 HD
ATOM     13  H   UNL     1      -3.246   9.913  -9.231  0.00  0.00    +0.000 HD
ENDBRANCH   7  10
ENDBRANCH   4   7
ENDBRANCH   1   4
BRANCH   1  14
ATOM     14  C   UNL     1      -1.555   6.916 -12.270  0.00  0.00    +0.000 C 
ATOM     15  H   UNL     1      -0.946   6.251 -11.648  0.00  0.00    +0.000 HD
ATOM     16  H   UNL     1      -1.850   6.378 -13.179  0.00  0.00    +0.000 HD
BRANCH  14  18
ATOM     17  O   UNL     1      -0.121   8.848 -11.912  0.00  0.00    +0.000 OA
ATOM     18  C   UNL     1      -0.689   8.087 -12.683  0.00  0.00    +0.000 C 
BRANCH  18  19
ATOM     19  O   UNL     1      -0.673   8.169 -14.046  0.00  0.00    +0.000 OA
BRANCH  19  20
ATOM     20  C   UNL     1       0.272   9.092 -14.597  0.00  0.00    +0.000 C 
ATOM     21  H   UNL     1       0.011   9.261 -15.645  0.00  0.00    +0.000 HD
ATOM     22  H   UNL     1       1.282   8.674 -14.550  0.00  0.00    +0.000 HD
ATOM     23  H   UNL     1       0.223  10.047 -14.064  0.00  0.00    +0.000 HD
ENDBRANCH  19  20
ENDBRANCH  18  19
ENDBRANCH  14  18
ENDBRANCH   1  14
TORSDOF 7
ENDMDL
MODEL 7
REMARK VINA RESULT:    -3.743     13.806     15.410
REMARK INTER + INTRA:          -5.231
REMARK INTER:                  -5.138
REMARK INTRA:                  -0.093
REMARK UNBOUND:                -0.174
REMARK  Name = 7824
REMARK  7 active torsions:
REMARK  status: ('A' for Active; 'I' for Inactive)
REMARK    1  A    between atoms: O_1  and  C_8
REMARK    2  A    between atoms: O_1  and  C_9
REMARK    3  A    between atoms: C_3  and  C_4
REMARK    4  A    between atoms: C_3  and  C_5
REMARK    5  A    between atoms: C_4  and  C_6
REMARK    6  A    between atoms: C_5  and  C_7
REMARK    7  A    between atoms: C_6  and  C_8
REMARK                            x       y       z     vdW  Elec       q    Type
REMARK                         _______ _______ _______ _____ _____    ______ ____
ROOT
ATOM      1  C   UNL     1      -8.359  10.466   8.075  0.00  0.00    +0.000 C 
ATOM      2  H   UNL     1      -7.340  10.834   8.251  0.00  0.00    +0.000 HD
ATOM      3  H   UNL     1      -9.028  11.112   8.657  0.00  0.00    +0.000 HD
ENDROOT
BRANCH   1   4
ATOM      4  C   UNL     1      -8.698  10.590   6.586  0.00  0.00    +0.000 C 
ATOM      5  H   UNL     1      -9.776  10.757   6.466  0.00  0.00    +0.000 HD
ATOM      6  H   UNL     1      -8.457   9.650   6.077  0.00  0.00    +0.000 HD
BRANCH   4   7
ATOM      7  C   UNL     1      -7.924  11.738   5.936  0.00  0.00    +0.000 C 
ATOM      8  H   UNL     1      -8.571  12.618   5.841  0.00  0.00    +0.000 HD
ATOM      9  H   UNL     1      -7.078  12.024   6.573  0.00  0.00    +0.000 HD
BRANCH   7  10
ATOM     10  C   UNL     1      -7.401  11.350   4.562  0.00  0.00    +0.000 C 
ATOM     11  H   UNL     1      -7.015  12.225   4.028  0.00  0.00    +0.000 HD
ATOM     12  H   UNL     1      -6.594  10.615   4.643  0.00  0.00    +0.000 HD
ATOM     13  H   UNL     1      -8.202  10.912   3.961  0.00  0.00    +0.000 HD
ENDBRANCH   7  10
ENDBRANCH   4   7
ENDBRANCH   1   4
BRANCH   1  14
ATOM     14  C   UNL     1      -8.471   9.028   8.580  0.00  0.00    +0.000 C 
ATOM     15  H   UNL     1      -9.527   8.757   8.687  0.00  0.00    +0.000 HD
ATOM     16  H   UNL     1      -8.004   8.352   7.854  0.00  0.00    +0.000 HD
BRANCH  14  18
ATOM     17  O   UNL     1      -6.800   9.401  10.308  0.00  0.00    +0.000 OA
ATOM     18  C   UNL     1      -7.800   8.813   9.919  0.00  0.00    +0.000 C 
BRANCH  18  19
ATOM     19  O   UNL     1      -8.472   7.839  10.601  0.00  0.00    +0.000 OA
BRANCH  19  20
ATOM     20  C   UNL     1      -9.689   8.255  11.229  0.00  0.00    +0.000 C 
ATOM     21  H   UNL     1     -10.525   7.844  10.657  0.00  0.00    +0.000 HD
ATOM     22  H   UNL     1      -9.764   9.347  11.224  0.00  0.00    +0.000 HD
ATOM     23  H   UNL     1      -9.740   7.869  12.252  0.00  0.00    +0.000 HD
ENDBRANCH  19  20
ENDBRANCH  18  19
ENDBRANCH  14  18
ENDBRANCH   1  14
TORSDOF 7
ENDMDL
MODEL 8
REMARK VINA RESULT:    -3.685      1.434      2.265
REMARK INTER + INTRA:          -5.152
REMARK INTER:                  -4.933
REMARK INTRA:                  -0.219
REMARK UNBOUND:                -0.174
REMARK  Name = 7824
REMARK  7 active torsions:
REMARK  status: ('A' for Active; 'I' for Inactive)
REMARK    1  A    between atoms: O_1  and  C_8
REMARK    2  A    between atoms: O_1  and  C_9
REMARK    3  A    between atoms: C_3  and  C_4
REMARK    4  A    between atoms: C_3  and  C_5
REMARK    5  A    between atoms: C_4  and  C_6
REMARK    6  A    between atoms: C_5  and  C_7
REMARK    7  A    between atoms: C_6  and  C_8
REMARK                            x       y       z     vdW  Elec       q    Type
REMARK                         _______ _______ _______ _____ _____    ______ ____
ROOT
ATOM      1  C   UNL     1       7.315   9.069   1.033  0.00  0.00    +0.000 C 
ATOM      2  H   UNL     1       7.924   9.981   0.980  0.00  0.00    +0.000 HD
ATOM      3  H   UNL     1       7.848   8.305   0.453  0.00  0.00    +0.000 HD
ENDROOT
BRANCH   1   4
ATOM      4  C   UNL     1       7.200   8.615   2.492  0.00  0.00    +0.000 C 
ATOM      5  H   UNL     1       6.902   9.463   3.120  0.00  0.00    +0.000 HD
ATOM      6  H   UNL     1       8.180   8.276   2.846  0.00  0.00    +0.000 HD
BRANCH   4   7
ATOM      7  C   UNL     1       6.183   7.482   2.639  0.00  0.00    +0.000 C 
ATOM      8  H   UNL     1       5.204   7.810   2.271  0.00  0.00    +0.000 HD
ATOM      9  H   UNL     1       6.489   6.624   2.029  0.00  0.00    +0.000 HD
BRANCH   7  10
ATOM     10  C   UNL     1       6.050   7.037   4.087  0.00  0.00    +0.000 C 
ATOM     11  H   UNL     1       5.055   7.273   4.480  0.00  0.00    +0.000 HD
ATOM     12  H   UNL     1       6.209   5.958   4.182  0.00  0.00    +0.000 HD
ATOM     13  H   UNL     1       6.790   7.546   4.710  0.00  0.00    +0.000 HD
ENDBRANCH   7  10
ENDBRANCH   4   7
ENDBRANCH   1   4
BRANCH   1  14
ATOM     14  C   UNL     1       5.953   9.334   0.395  0.00  0.00    +0.000 C 
ATOM     15  H   UNL     1       5.914   8.871  -0.596  0.00  0.00    +0.000 HD
ATOM     16  H   UNL     1       5.168   8.894   1.022  0.00  0.00    +0.000 HD
BRANCH  14  18
ATOM     17  O   UNL     1       6.470  11.671  -0.038  0.00  0.00    +0.000 OA
ATOM     18  C   UNL     1       5.647  10.807   0.231  0.00  0.00    +0.000 C 
BRANCH  18  19
ATOM     19  O   UNL     1       4.316  11.013   0.462  0.00  0.00    +0.000 OA
BRANCH  19  20
ATOM     20  C   UNL     1       3.710  10.125   1.406  0.00  0.00    +0.000 C 
ATOM     21  H   UNL     1       3.549   9.163   0.913  0.00  0.00    +0.000 HD
ATOM     22  H   UNL     1       2.742  10.520   1.729  0.00  0.00    +0.000 HD
ATOM     23  H   UNL     1       4.372   9.974   2.264  0.00  0.00    +0.000 HD
ENDBRANCH  19  20
ENDBRANCH  18  19
ENDBRANCH  14  18
ENDBRANCH   1  14
TORSDOF 7
ENDMDL
MODEL 9
REMARK VINA RESULT:    -3.539     13.242     14.781
REMARK INTER + INTRA:          -4.954
REMARK INTER:                  -4.780
REMARK INTRA:                  -0.174
REMARK UNBOUND:                -0.174
REMARK  Name = 7824
REMARK  7 active torsions:
REMARK  status: ('A' for Active; 'I' for Inactive)
REMARK    1  A    between atoms: O_1  and  C_8
REMARK    2  A    between atoms: O_1  and  C_9
REMARK    3  A    between atoms: C_3  and  C_4
REMARK    4  A    between atoms: C_3  and  C_5
REMARK    5  A    between atoms: C_4  and  C_6
REMARK    6  A    between atoms: C_5  and  C_7
REMARK    7  A    between atoms: C_6  and  C_8
REMARK                            x       y       z     vdW  Elec       q    Type
REMARK                         _______ _______ _______ _____ _____    ______ ____
ROOT
ATOM      1  C   UNL     1      -8.686  11.330   6.275  0.00  0.00    +0.000 C 
ATOM      2  H   UNL     1      -8.221  12.096   6.909  0.00  0.00    +0.000 HD
ATOM      3  H   UNL     1      -9.691  11.697   6.031  0.00  0.00    +0.000 HD
ENDROOT
BRANCH   1   4
ATOM      4  C   UNL     1      -7.874  11.170   4.985  0.00  0.00    +0.000 C 
ATOM      5  H   UNL     1      -8.556  11.071   4.131  0.00  0.00    +0.000 HD
ATOM      6  H   UNL     1      -7.284  10.249   5.038  0.00  0.00    +0.000 HD
BRANCH   4   7
ATOM      7  C   UNL     1      -6.944  12.364   4.765  0.00  0.00    +0.000 C 
ATOM      8  H   UNL     1      -5.940  12.010   4.500  0.00  0.00    +0.000 HD
ATOM      9  H   UNL     1      -7.307  12.970   3.926  0.00  0.00    +0.000 HD
BRANCH   7  10
ATOM     10  C   UNL     1      -6.855  13.238   6.006  0.00  0.00    +0.000 C 
ATOM     11  H   UNL     1      -7.769  13.164   6.604  0.00  0.00    +0.000 HD
ATOM     12  H   UNL     1      -6.008  12.943   6.634  0.00  0.00    +0.000 HD
ATOM     13  H   UNL     1      -6.719  14.286   5.722  0.00  0.00    +0.000 HD
ENDBRANCH   7  10
ENDBRANCH   4   7
ENDBRANCH   1   4
BRANCH   1  14
ATOM     14  C   UNL     1      -8.797  10.024   7.060  0.00  0.00    +0.000 C 
ATOM     15  H   UNL     1      -9.828   9.657   7.019  0.00  0.00    +0.000 HD
ATOM     16  H   UNL     1      -8.137   9.274   6.609  0.00  0.00    +0.000 HD
BRANCH  14  18
ATOM     17  O   UNL     1      -7.635  11.003   8.960  0.00  0.00    +0.000 OA
ATOM     18  C   UNL     1      -8.413  10.169   8.516  0.00  0.00    +0.000 C 
BRANCH  18  19
ATOM     19  O   UNL     1      -9.051   9.203   9.242  0.00  0.00    +0.000 OA
BRANCH  19  20
ATOM     20  C   UNL     1      -8.262   8.574  10.257  0.00  0.00    +0.000 C 
ATOM     21  H   UNL     1      -7.256   9.000  10.219  0.00  0.00    +0.000 HD
ATOM     22  H   UNL     1      -8.194   7.497  10.070  0.00  0.00    +0.000 HD
ATOM     23  H   UNL     1      -8.690   8.769  11.245  0.00  0.00    +0.000 HD
ENDBRANCH  19  20
ENDBRANCH  18  19
ENDBRANCH  14  18
ENDBRANCH   1  14
TORSDOF 7
ENDMDL
MODEL 10
REMARK VINA RESULT:    -3.496      2.921      3.939
REMARK INTER + INTRA:          -4.896
REMARK INTER:                  -4.774
REMARK INTRA:                  -0.123
REMARK UNBOUND:                -0.174
REMARK  Name = 7824
REMARK  7 active torsions:
REMARK  status: ('A' for Active; 'I' for Inactive)
REMARK    1  A    between atoms: O_1  and  C_8
REMARK    2  A    between atoms: O_1  and  C_9
REMARK    3  A    between atoms: C_3  and  C_4
REMARK    4  A    between atoms: C_3  and  C_5
REMARK    5  A    between atoms: C_4  and  C_6
REMARK    6  A    between atoms: C_5  and  C_7
REMARK    7  A    between atoms: C_6  and  C_8
REMARK                            x       y       z     vdW  Elec       q    Type
REMARK                         _______ _______ _______ _____ _____    ______ ____
ROOT
ATOM      1  C   UNL     1       6.985   8.489   1.685  0.00  0.00    +0.000 C 
ATOM      2  H   UNL     1       7.272   9.539   1.825  0.00  0.00    +0.000 HD
ATOM      3  H   UNL     1       7.828   7.886   2.047  0.00  0.00    +0.000 HD
ENDROOT
BRANCH   1   4
ATOM      4  C   UNL     1       5.741   8.180   2.523  0.00  0.00    +0.000 C 
ATOM      5  H   UNL     1       4.857   8.154   1.874  0.00  0.00    +0.000 HD
ATOM      6  H   UNL     1       5.584   8.983   3.252  0.00  0.00    +0.000 HD
BRANCH   4   7
ATOM      7  C   UNL     1       5.883   6.844   3.254  0.00  0.00    +0.000 C 
ATOM      8  H   UNL     1       4.952   6.271   3.167  0.00  0.00    +0.000 HD
ATOM      9  H   UNL     1       6.676   6.248   2.788  0.00  0.00    +0.000 HD
BRANCH   7  10
ATOM     10  C   UNL     1       6.212   7.045   4.724  0.00  0.00    +0.000 C 
ATOM     11  H   UNL     1       7.076   6.440   5.019  0.00  0.00    +0.000 HD
ATOM     12  H   UNL     1       6.440   8.095   4.936  0.00  0.00    +0.000 HD
ATOM     13  H   UNL     1       5.363   6.749   5.347  0.00  0.00    +0.000 HD
ENDBRANCH   7  10
ENDBRANCH   4   7
ENDBRANCH   1   4
BRANCH   1  14
ATOM     14  C   UNL     1       6.768   8.219   0.197  0.00  0.00    +0.000 C 
ATOM     15  H   UNL     1       7.442   7.421  -0.134  0.00  0.00    +0.000 HD
ATOM     16  H   UNL     1       5.733   7.896   0.035  0.00  0.00    +0.000 HD
BRANCH  14  18
ATOM     17  O   UNL     1       6.602  10.558  -0.449  0.00  0.00    +0.000 OA
ATOM     18  C   UNL     1       7.022   9.431  -0.673  0.00  0.00    +0.000 C 
BRANCH  18  19
ATOM     19  O   UNL     1       7.765   9.054  -1.755  0.00  0.00    +0.000 OA
BRANCH  19  20
ATOM     20  C   UNL     1       9.179   8.996  -1.541  0.00  0.00    +0.000 C 
ATOM     21  H   UNL     1       9.460   9.834  -0.898  0.00  0.00    +0.000 HD
ATOM     22  H   UNL     1       9.710   9.091  -2.493  0.00  0.00    +0.000 HD
ATOM     23  H   UNL     1       9.449   8.062  -1.039  0.00  0.00    +0.000 HD
ENDBRANCH  19  20
ENDBRANCH  18  19
ENDBRANCH  14  18
ENDBRANCH   1  14
TORSDOF 7
ENDMDL
