MODEL 1
REMARK VINA RESULT:    -5.587      0.000      0.000
REMARK INTER + INTRA:          -7.992
REMARK INTER:                  -7.483
REMARK INTRA:                  -0.510
REMARK UNBOUND:                -0.446
REMARK  Name = 605629
REMARK  8 active torsions:
REMARK  status: ('A' for Active; 'I' for Inactive)
REMARK    1  A    between atoms: O_1  and  C_14
REMARK    2  A    between atoms: O_1  and  C_15
REMARK    3  A    between atoms: C_3  and  C_4
REMARK    4  A    between atoms: C_3  and  C_5
REMARK    5  A    between atoms: C_3  and  C_6
REMARK    6  A    between atoms: C_3  and  C_7
REMARK    7  A    between atoms: C_10  and  C_13
REMARK    8  A    between atoms: C_13  and  C_14
REMARK                            x       y       z     vdW  Elec       q    Type
REMARK                         _______ _______ _______ _____ _____    ______ ____
ROOT
ATOM      1  C   UNL     1       8.140   9.428   5.453  0.00  0.00    +0.000 A 
ATOM      2  C   UNL     1       7.110   8.524   5.530  0.00  0.00    +0.000 A 
ATOM      3  C   UNL     1       8.681   9.857   4.267  0.00  0.00    +0.000 A 
ATOM      4  C   UNL     1       7.108   8.429   3.116  0.00  0.00    +0.000 A 
ATOM      5  C   UNL     1       6.585   8.016   4.342  0.00  0.00    +0.000 A 
ATOM      6  C   UNL     1       8.156   9.349   3.079  0.00  0.00    +0.000 A 
ATOM      7  H   UNL     1       6.688   8.189   6.471  0.00  0.00    +0.000 HD
ATOM      8  H   UNL     1       9.492  10.567   4.180  0.00  0.00    +0.000 HD
ATOM      9  H   UNL     1       5.771   7.298   4.384  0.00  0.00    +0.000 HD
ATOM     10  H   UNL     1       8.573   9.676   2.131  0.00  0.00    +0.000 HD
ENDROOT
BRANCH   4  11
ATOM     11  C   UNL     1       6.548   7.885   1.846  0.00  0.00    +0.000 C 
ATOM     12  H   UNL     1       7.363   7.644   1.153  0.00  0.00    +0.000 HD
ATOM     13  H   UNL     1       6.009   6.952   2.051  0.00  0.00    +0.000 HD
BRANCH  11  15
ATOM     14  O   UNL     1       5.939   9.742   0.396  0.00  0.00    +0.000 OA
ATOM     15  C   UNL     1       5.598   8.838   1.147  0.00  0.00    +0.000 C 
BRANCH  15  16
ATOM     16  O   UNL     1       4.312   8.526   1.488  0.00  0.00    +0.000 OA
BRANCH  16  17
ATOM     17  C   UNL     1       3.652   9.468   2.340  0.00  0.00    +0.000 C 
ATOM     18  H   UNL     1       4.358  10.235   2.673  0.00  0.00    +0.000 HD
ATOM     19  H   UNL     1       3.205   8.956   3.196  0.00  0.00    +0.000 HD
ATOM     20  H   UNL     1       2.857   9.949   1.764  0.00  0.00    +0.000 HD
ENDBRANCH  16  17
ENDBRANCH  15  16
ENDBRANCH  11  15
ENDBRANCH   4  11
BRANCH   1  21
ATOM     21  C   UNL     1       8.719   9.987   6.764  0.00  0.00    +0.000 C 
BRANCH  21  22
ATOM     22  C   UNL     1       9.013   8.827   7.739  0.00  0.00    +0.000 C 
ATOM     23  H   UNL     1      10.082   8.580   7.748  0.00  0.00    +0.000 HD
ATOM     24  H   UNL     1       8.734   9.067   8.770  0.00  0.00    +0.000 HD
ATOM     25  H   UNL     1       8.465   7.922   7.452  0.00  0.00    +0.000 HD
ENDBRANCH  21  22
BRANCH  21  26
ATOM     26  C   UNL     1       7.700  10.950   7.412  0.00  0.00    +0.000 C 
ATOM     27  H   UNL     1       7.668  10.853   8.503  0.00  0.00    +0.000 HD
ATOM     28  H   UNL     1       7.949  11.995   7.194  0.00  0.00    +0.000 HD
ATOM     29  H   UNL     1       6.687  10.763   7.036  0.00  0.00    +0.000 HD
ENDBRANCH  21  26
BRANCH  21  30
ATOM     30  C   UNL     1      10.035  10.775   6.580  0.00  0.00    +0.000 C 
ATOM     31  H   UNL     1      10.051  11.662   7.225  0.00  0.00    +0.000 HD
ATOM     32  H   UNL     1      10.913  10.177   6.851  0.00  0.00    +0.000 HD
ATOM     33  H   UNL     1      10.159  11.136   5.552  0.00  0.00    +0.000 HD
ENDBRANCH  21  30
ENDBRANCH   1  21
TORSDOF 8
ENDMDL
MODEL 2
REMARK VINA RESULT:    -5.526     17.261     19.068
REMARK INTER + INTRA:          -7.911
REMARK INTER:                  -7.566
REMARK INTRA:                  -0.345
REMARK UNBOUND:                -0.446
REMARK  Name = 605629
REMARK  8 active torsions:
REMARK  status: ('A' for Active; 'I' for Inactive)
REMARK    1  A    between atoms: O_1  and  C_14
REMARK    2  A    between atoms: O_1  and  C_15
REMARK    3  A    between atoms: C_3  and  C_4
REMARK    4  A    between atoms: C_3  and  C_5
REMARK    5  A    between atoms: C_3  and  C_6
REMARK    6  A    between atoms: C_3  and  C_7
REMARK    7  A    between atoms: C_10  and  C_13
REMARK    8  A    between atoms: C_13  and  C_14
REMARK                            x       y       z     vdW  Elec       q    Type
REMARK                         _______ _______ _______ _____ _____    ______ ____
ROOT
ATOM      1  C   UNL     1      -5.837   6.023  -9.700  0.00  0.00    +0.000 A 
ATOM      2  C   UNL     1      -5.640   6.467 -10.983  0.00  0.00    +0.000 A 
ATOM      3  C   UNL     1      -4.904   6.158  -8.702  0.00  0.00    +0.000 A 
ATOM      4  C   UNL     1      -3.457   7.246 -10.302  0.00  0.00    +0.000 A 
ATOM      5  C   UNL     1      -4.430   7.090 -11.289  0.00  0.00    +0.000 A 
ATOM      6  C   UNL     1      -3.694   6.781  -9.009  0.00  0.00    +0.000 A 
ATOM      7  H   UNL     1      -6.381   6.356 -11.766  0.00  0.00    +0.000 HD
ATOM      8  H   UNL     1      -5.035   5.816  -7.684  0.00  0.00    +0.000 HD
ATOM      9  H   UNL     1      -4.256   7.446 -12.301  0.00  0.00    +0.000 HD
ATOM     10  H   UNL     1      -2.943   6.895  -8.232  0.00  0.00    +0.000 HD
ENDROOT
BRANCH   4  11
ATOM     11  C   UNL     1      -2.163   7.911 -10.629  0.00  0.00    +0.000 C 
ATOM     12  H   UNL     1      -1.336   7.371 -10.152  0.00  0.00    +0.000 HD
ATOM     13  H   UNL     1      -1.993   7.873 -11.713  0.00  0.00    +0.000 HD
BRANCH  11  15
ATOM     14  O   UNL     1      -2.871   9.887  -9.400  0.00  0.00    +0.000 OA
ATOM     15  C   UNL     1      -2.098   9.360 -10.189  0.00  0.00    +0.000 C 
BRANCH  15  16
ATOM     16  O   UNL     1      -1.046   9.975 -10.807  0.00  0.00    +0.000 OA
BRANCH  16  17
ATOM     17  C   UNL     1      -0.521   9.296 -11.953  0.00  0.00    +0.000 C 
ATOM     18  H   UNL     1      -1.298   8.680 -12.416  0.00  0.00    +0.000 HD
ATOM     19  H   UNL     1       0.339   8.683 -11.668  0.00  0.00    +0.000 HD
ATOM     20  H   UNL     1      -0.193  10.049 -12.674  0.00  0.00    +0.000 HD
ENDBRANCH  16  17
ENDBRANCH  15  16
ENDBRANCH  11  15
ENDBRANCH   4  11
BRANCH   1  21
ATOM     21  C   UNL     1      -7.171   5.336  -9.362  0.00  0.00    +0.000 C 
BRANCH  21  22
ATOM     22  C   UNL     1      -6.970   4.364  -8.179  0.00  0.00    +0.000 C 
ATOM     23  H   UNL     1      -6.898   4.909  -7.230  0.00  0.00    +0.000 HD
ATOM     24  H   UNL     1      -7.797   3.654  -8.076  0.00  0.00    +0.000 HD
ATOM     25  H   UNL     1      -6.049   3.782  -8.299  0.00  0.00    +0.000 HD
ENDBRANCH  21  22
BRANCH  21  26
ATOM     26  C   UNL     1      -7.672   4.544 -10.590  0.00  0.00    +0.000 C 
ATOM     27  H   UNL     1      -7.380   5.010 -11.537  0.00  0.00    +0.000 HD
ATOM     28  H   UNL     1      -7.262   3.527 -10.597  0.00  0.00    +0.000 HD
ATOM     29  H   UNL     1      -8.765   4.462 -10.587  0.00  0.00    +0.000 HD
ENDBRANCH  21  26
BRANCH  21  30
ATOM     30  C   UNL     1      -8.296   6.317  -8.963  0.00  0.00    +0.000 C 
ATOM     31  H   UNL     1      -8.726   6.042  -7.992  0.00  0.00    +0.000 HD
ATOM     32  H   UNL     1      -7.927   7.345  -8.860  0.00  0.00    +0.000 HD
ATOM     33  H   UNL     1      -9.122   6.310  -9.683  0.00  0.00    +0.000 HD
ENDBRANCH  21  30
ENDBRANCH   1  21
TORSDOF 8
ENDMDL
MODEL 3
REMARK VINA RESULT:    -5.407     17.951     19.296
REMARK INTER + INTRA:          -7.749
REMARK INTER:                  -7.313
REMARK INTRA:                  -0.436
REMARK UNBOUND:                -0.446
REMARK  Name = 605629
REMARK  8 active torsions:
REMARK  status: ('A' for Active; 'I' for Inactive)
REMARK    1  A    between atoms: O_1  and  C_14
REMARK    2  A    between atoms: O_1  and  C_15
REMARK    3  A    between atoms: C_3  and  C_4
REMARK    4  A    between atoms: C_3  and  C_5
REMARK    5  A    between atoms: C_3  and  C_6
REMARK    6  A    between atoms: C_3  and  C_7
REMARK    7  A    between atoms: C_10  and  C_13
REMARK    8  A    between atoms: C_13  and  C_14
REMARK                            x       y       z     vdW  Elec       q    Type
REMARK                         _______ _______ _______ _____ _____    ______ ____
ROOT
ATOM      1  C   UNL     1      -4.099   6.949 -10.825  0.00  0.00    +0.000 A 
ATOM      2  C   UNL     1      -3.744   6.791  -9.509  0.00  0.00    +0.000 A 
ATOM      3  C   UNL     1      -5.331   6.603 -11.322  0.00  0.00    +0.000 A 
ATOM      4  C   UNL     1      -5.947   5.888  -9.098  0.00  0.00    +0.000 A 
ATOM      5  C   UNL     1      -4.684   6.252  -8.630  0.00  0.00    +0.000 A 
ATOM      6  C   UNL     1      -6.271   6.064 -10.443  0.00  0.00    +0.000 A 
ATOM      7  H   UNL     1      -2.769   7.066  -9.123  0.00  0.00    +0.000 HD
ATOM      8  H   UNL     1      -5.634   6.718 -12.354  0.00  0.00    +0.000 HD
ATOM      9  H   UNL     1      -4.420   6.117  -7.585  0.00  0.00    +0.000 HD
ATOM     10  H   UNL     1      -7.250   5.783 -10.820  0.00  0.00    +0.000 HD
ENDROOT
BRANCH   4  11
ATOM     11  C   UNL     1      -6.952   5.311  -8.159  0.00  0.00    +0.000 C 
ATOM     12  H   UNL     1      -7.496   4.496  -8.651  0.00  0.00    +0.000 HD
ATOM     13  H   UNL     1      -6.439   4.881  -7.290  0.00  0.00    +0.000 HD
BRANCH  11  15
ATOM     14  O   UNL     1      -8.936   6.712  -8.293  0.00  0.00    +0.000 OA
ATOM     15  C   UNL     1      -7.965   6.323  -7.660  0.00  0.00    +0.000 C 
BRANCH  15  16
ATOM     16  O   UNL     1      -7.621   6.723  -6.399  0.00  0.00    +0.000 OA
BRANCH  16  17
ATOM     17  C   UNL     1      -8.455   6.230  -5.346  0.00  0.00    +0.000 C 
ATOM     18  H   UNL     1      -8.269   5.164  -5.183  0.00  0.00    +0.000 HD
ATOM     19  H   UNL     1      -9.508   6.407  -5.583  0.00  0.00    +0.000 HD
ATOM     20  H   UNL     1      -8.205   6.773  -4.430  0.00  0.00    +0.000 HD
ENDBRANCH  16  17
ENDBRANCH  15  16
ENDBRANCH  11  15
ENDBRANCH   4  11
BRANCH   1  21
ATOM     21  C   UNL     1      -3.063   7.544 -11.793  0.00  0.00    +0.000 C 
BRANCH  21  22
ATOM     22  C   UNL     1      -3.478   7.240 -13.249  0.00  0.00    +0.000 C 
ATOM     23  H   UNL     1      -2.632   7.364 -13.935  0.00  0.00    +0.000 HD
ATOM     24  H   UNL     1      -3.843   6.216 -13.376  0.00  0.00    +0.000 HD
ATOM     25  H   UNL     1      -4.276   7.917 -13.581  0.00  0.00    +0.000 HD
ENDBRANCH  21  22
BRANCH  21  26
ATOM     26  C   UNL     1      -1.678   6.917 -11.520  0.00  0.00    +0.000 C 
ATOM     27  H   UNL     1      -1.750   5.934 -11.043  0.00  0.00    +0.000 HD
ATOM     28  H   UNL     1      -1.118   6.776 -12.452  0.00  0.00    +0.000 HD
ATOM     29  H   UNL     1      -1.077   7.557 -10.864  0.00  0.00    +0.000 HD
ENDBRANCH  21  26
BRANCH  21  30
ATOM     30  C   UNL     1      -2.900   9.076 -11.673  0.00  0.00    +0.000 C 
ATOM     31  H   UNL     1      -2.095   9.328 -10.972  0.00  0.00    +0.000 HD
ATOM     32  H   UNL     1      -2.634   9.536 -12.633  0.00  0.00    +0.000 HD
ATOM     33  H   UNL     1      -3.808   9.557 -11.292  0.00  0.00    +0.000 HD
ENDBRANCH  21  30
ENDBRANCH   1  21
TORSDOF 8
ENDMDL
MODEL 4
REMARK VINA RESULT:    -5.373     28.908     30.615
REMARK INTER + INTRA:          -7.703
REMARK INTER:                  -7.294
REMARK INTRA:                  -0.409
REMARK UNBOUND:                -0.446
REMARK  Name = 605629
REMARK  8 active torsions:
REMARK  status: ('A' for Active; 'I' for Inactive)
REMARK    1  A    between atoms: O_1  and  C_14
REMARK    2  A    between atoms: O_1  and  C_15
REMARK    3  A    between atoms: C_3  and  C_4
REMARK    4  A    between atoms: C_3  and  C_5
REMARK    5  A    between atoms: C_3  and  C_6
REMARK    6  A    between atoms: C_3  and  C_7
REMARK    7  A    between atoms: C_10  and  C_13
REMARK    8  A    between atoms: C_13  and  C_14
REMARK                            x       y       z     vdW  Elec       q    Type
REMARK                         _______ _______ _______ _____ _____    ______ ____
ROOT
ATOM      1  C   UNL     1     -19.922  -4.124   3.123  0.00  0.00    +0.000 A 
ATOM      2  C   UNL     1     -19.737  -4.536   4.419  0.00  0.00    +0.000 A 
ATOM      3  C   UNL     1     -20.694  -3.043   2.778  0.00  0.00    +0.000 A 
ATOM      4  C   UNL     1     -21.157  -2.713   5.126  0.00  0.00    +0.000 A 
ATOM      5  C   UNL     1     -20.364  -3.818   5.438  0.00  0.00    +0.000 A 
ATOM      6  C   UNL     1     -21.321  -2.325   3.796  0.00  0.00    +0.000 A 
ATOM      7  H   UNL     1     -19.126  -5.391   4.686  0.00  0.00    +0.000 HD
ATOM      8  H   UNL     1     -20.855  -2.699   1.765  0.00  0.00    +0.000 HD
ATOM      9  H   UNL     1     -20.231  -4.131   6.470  0.00  0.00    +0.000 HD
ATOM     10  H   UNL     1     -21.937  -1.468   3.540  0.00  0.00    +0.000 HD
ENDROOT
BRANCH   4  11
ATOM     11  C   UNL     1     -21.828  -1.946   6.214  0.00  0.00    +0.000 C 
ATOM     12  H   UNL     1     -22.772  -1.526   5.846  0.00  0.00    +0.000 HD
ATOM     13  H   UNL     1     -22.075  -2.622   7.042  0.00  0.00    +0.000 HD
BRANCH  11  15
ATOM     14  O   UNL     1     -20.275  -0.078   6.089  0.00  0.00    +0.000 OA
ATOM     15  C   UNL     1     -20.986  -0.811   6.762  0.00  0.00    +0.000 C 
BRANCH  15  16
ATOM     16  O   UNL     1     -21.151  -0.739   8.118  0.00  0.00    +0.000 OA
BRANCH  16  17
ATOM     17  C   UNL     1     -22.503  -0.822   8.580  0.00  0.00    +0.000 C 
ATOM     18  H   UNL     1     -23.065  -1.542   7.978  0.00  0.00    +0.000 HD
ATOM     19  H   UNL     1     -22.976   0.164   8.544  0.00  0.00    +0.000 HD
ATOM     20  H   UNL     1     -22.488  -1.166   9.617  0.00  0.00    +0.000 HD
ENDBRANCH  16  17
ENDBRANCH  15  16
ENDBRANCH  11  15
ENDBRANCH   4  11
BRANCH   1  21
ATOM     21  C   UNL     1     -19.230  -4.915   2.001  0.00  0.00    +0.000 C 
BRANCH  21  22
ATOM     22  C   UNL     1     -19.603  -4.308   0.631  0.00  0.00    +0.000 C 
ATOM     23  H   UNL     1     -18.802  -3.659   0.256  0.00  0.00    +0.000 HD
ATOM     24  H   UNL     1     -19.776  -5.072  -0.133  0.00  0.00    +0.000 HD
ATOM     25  H   UNL     1     -20.515  -3.702   0.703  0.00  0.00    +0.000 HD
ENDBRANCH  21  22
BRANCH  21  26
ATOM     26  C   UNL     1     -19.692  -6.389   2.044  0.00  0.00    +0.000 C 
ATOM     27  H   UNL     1     -20.060  -6.683   3.033  0.00  0.00    +0.000 HD
ATOM     28  H   UNL     1     -20.509  -6.568   1.335  0.00  0.00    +0.000 HD
ATOM     29  H   UNL     1     -18.871  -7.067   1.784  0.00  0.00    +0.000 HD
ENDBRANCH  21  26
BRANCH  21  30
ATOM     30  C   UNL     1     -17.688  -4.919   2.096  0.00  0.00    +0.000 C 
ATOM     31  H   UNL     1     -17.319  -5.906   2.399  0.00  0.00    +0.000 HD
ATOM     32  H   UNL     1     -17.217  -4.693   1.131  0.00  0.00    +0.000 HD
ATOM     33  H   UNL     1     -17.321  -4.205   2.842  0.00  0.00    +0.000 HD
ENDBRANCH  21  30
ENDBRANCH   1  21
TORSDOF 8
ENDMDL
MODEL 5
REMARK VINA RESULT:    -5.215     14.948     16.935
REMARK INTER + INTRA:          -7.491
REMARK INTER:                  -7.069
REMARK INTRA:                  -0.422
REMARK UNBOUND:                -0.446
REMARK  Name = 605629
REMARK  8 active torsions:
REMARK  status: ('A' for Active; 'I' for Inactive)
REMARK    1  A    between atoms: O_1  and  C_14
REMARK    2  A    between atoms: O_1  and  C_15
REMARK    3  A    between atoms: C_3  and  C_4
REMARK    4  A    between atoms: C_3  and  C_5
REMARK    5  A    between atoms: C_3  and  C_6
REMARK    6  A    between atoms: C_3  and  C_7
REMARK    7  A    between atoms: C_10  and  C_13
REMARK    8  A    between atoms: C_13  and  C_14
REMARK                            x       y       z     vdW  Elec       q    Type
REMARK                         _______ _______ _______ _____ _____    ______ ____
ROOT
ATOM      1  C   UNL     1      -8.011  11.720   6.575  0.00  0.00    +0.000 A 
ATOM      2  C   UNL     1      -8.754  10.570   6.670  0.00  0.00    +0.000 A 
ATOM      3  C   UNL     1      -7.565  12.422   7.666  0.00  0.00    +0.000 A 
ATOM      4  C   UNL     1      -8.634  10.775   9.074  0.00  0.00    +0.000 A 
ATOM      5  C   UNL     1      -9.070  10.089   7.940  0.00  0.00    +0.000 A 
ATOM      6  C   UNL     1      -7.881  11.942   8.937  0.00  0.00    +0.000 A 
ATOM      7  H   UNL     1      -9.104  10.020   5.803  0.00  0.00    +0.000 HD
ATOM      8  H   UNL     1      -6.979  13.331   7.618  0.00  0.00    +0.000 HD
ATOM      9  H   UNL     1      -9.659   9.180   8.034  0.00  0.00    +0.000 HD
ATOM     10  H   UNL     1      -7.538  12.486   9.811  0.00  0.00    +0.000 HD
ENDROOT
BRANCH   4  11
ATOM     11  C   UNL     1      -8.973  10.262  10.432  0.00  0.00    +0.000 C 
ATOM     12  H   UNL     1      -8.282  10.684  11.172  0.00  0.00    +0.000 HD
ATOM     13  H   UNL     1      -9.983  10.589  10.708  0.00  0.00    +0.000 HD
BRANCH  11  15
ATOM     14  O   UNL     1      -7.920   8.071  10.336  0.00  0.00    +0.000 OA
ATOM     15  C   UNL     1      -8.916   8.751  10.539  0.00  0.00    +0.000 C 
BRANCH  15  16
ATOM     16  O   UNL     1     -10.147   8.277  10.899  0.00  0.00    +0.000 OA
BRANCH  16  17
ATOM     17  C   UNL     1     -10.835   9.039  11.896  0.00  0.00    +0.000 C 
ATOM     18  H   UNL     1     -11.074  10.036  11.512  0.00  0.00    +0.000 HD
ATOM     19  H   UNL     1     -10.229   9.109  12.804  0.00  0.00    +0.000 HD
ATOM     20  H   UNL     1     -11.768   8.523  12.135  0.00  0.00    +0.000 HD
ENDBRANCH  16  17
ENDBRANCH  15  16
ENDBRANCH  11  15
ENDBRANCH   4  11
BRANCH   1  21
ATOM     21  C   UNL     1      -7.663  12.250   5.174  0.00  0.00    +0.000 C 
BRANCH  21  22
ATOM     22  C   UNL     1      -7.292  11.070   4.249  0.00  0.00    +0.000 C 
ATOM     23  H   UNL     1      -7.863  11.108   3.314  0.00  0.00    +0.000 HD
ATOM     24  H   UNL     1      -6.232  11.070   3.975  0.00  0.00    +0.000 HD
ATOM     25  H   UNL     1      -7.507  10.108   4.731  0.00  0.00    +0.000 HD
ENDBRANCH  21  22
BRANCH  21  26
ATOM     26  C   UNL     1      -6.462  13.217   5.269  0.00  0.00    +0.000 C 
ATOM     27  H   UNL     1      -6.441  13.939   4.446  0.00  0.00    +0.000 HD
ATOM     28  H   UNL     1      -6.495  13.796   6.199  0.00  0.00    +0.000 HD
ATOM     29  H   UNL     1      -5.513  12.669   5.250  0.00  0.00    +0.000 HD
ENDBRANCH  21  26
BRANCH  21  30
ATOM     30  C   UNL     1      -8.815  13.021   4.492  0.00  0.00    +0.000 C 
ATOM     31  H   UNL     1      -9.650  13.167   5.188  0.00  0.00    +0.000 HD
ATOM     32  H   UNL     1      -8.503  14.020   4.165  0.00  0.00    +0.000 HD
ATOM     33  H   UNL     1      -9.219  12.479   3.629  0.00  0.00    +0.000 HD
ENDBRANCH  21  30
ENDBRANCH   1  21
TORSDOF 8
ENDMDL
MODEL 6
REMARK VINA RESULT:    -5.194     30.154     31.205
REMARK INTER + INTRA:          -7.463
REMARK INTER:                  -7.035
REMARK INTRA:                  -0.427
REMARK UNBOUND:                -0.446
REMARK  Name = 605629
REMARK  8 active torsions:
REMARK  status: ('A' for Active; 'I' for Inactive)
REMARK    1  A    between atoms: O_1  and  C_14
REMARK    2  A    between atoms: O_1  and  C_15
REMARK    3  A    between atoms: C_3  and  C_4
REMARK    4  A    between atoms: C_3  and  C_5
REMARK    5  A    between atoms: C_3  and  C_6
REMARK    6  A    between atoms: C_3  and  C_7
REMARK    7  A    between atoms: C_10  and  C_13
REMARK    8  A    between atoms: C_13  and  C_14
REMARK                            x       y       z     vdW  Elec       q    Type
REMARK                         _______ _______ _______ _____ _____    ______ ____
ROOT
ATOM      1  C   UNL     1     -20.497  -3.384   3.901  0.00  0.00    +0.000 A 
ATOM      2  C   UNL     1     -20.408  -3.955   5.145  0.00  0.00    +0.000 A 
ATOM      3  C   UNL     1     -20.793  -2.059   3.697  0.00  0.00    +0.000 A 
ATOM      4  C   UNL     1     -20.932  -1.796   6.095  0.00  0.00    +0.000 A 
ATOM      5  C   UNL     1     -20.628  -3.148   6.261  0.00  0.00    +0.000 A 
ATOM      6  C   UNL     1     -21.013  -1.252   4.814  0.00  0.00    +0.000 A 
ATOM      7  H   UNL     1     -20.174  -5.003   5.298  0.00  0.00    +0.000 HD
ATOM      8  H   UNL     1     -20.869  -1.585   2.728  0.00  0.00    +0.000 HD
ATOM      9  H   UNL     1     -20.564  -3.584   7.255  0.00  0.00    +0.000 HD
ATOM     10  H   UNL     1     -21.251  -0.202   4.671  0.00  0.00    +0.000 HD
ENDROOT
BRANCH   4  11
ATOM     11  C   UNL     1     -21.169  -0.934   7.288  0.00  0.00    +0.000 C 
ATOM     12  H   UNL     1     -20.456  -1.191   8.081  0.00  0.00    +0.000 HD
ATOM     13  H   UNL     1     -20.995   0.117   7.023  0.00  0.00    +0.000 HD
BRANCH  11  15
ATOM     14  O   UNL     1     -23.551  -1.424   7.222  0.00  0.00    +0.000 OA
ATOM     15  C   UNL     1     -22.570  -1.055   7.853  0.00  0.00    +0.000 C 
BRANCH  15  16
ATOM     16  O   UNL     1     -22.560  -0.691   9.171  0.00  0.00    +0.000 OA
BRANCH  16  17
ATOM     17  C   UNL     1     -23.821  -0.279   9.707  0.00  0.00    +0.000 C 
ATOM     18  H   UNL     1     -24.610  -0.406   8.960  0.00  0.00    +0.000 HD
ATOM     19  H   UNL     1     -23.768   0.762  10.041  0.00  0.00    +0.000 HD
ATOM     20  H   UNL     1     -24.048  -0.913  10.569  0.00  0.00    +0.000 HD
ENDBRANCH  16  17
ENDBRANCH  15  16
ENDBRANCH  11  15
ENDBRANCH   4  11
BRANCH   1  21
ATOM     21  C   UNL     1     -20.254  -4.274   2.670  0.00  0.00    +0.000 C 
BRANCH  21  22
ATOM     22  C   UNL     1     -18.868  -4.945   2.780  0.00  0.00    +0.000 C 
ATOM     23  H   UNL     1     -18.479  -5.213   1.790  0.00  0.00    +0.000 HD
ATOM     24  H   UNL     1     -18.123  -4.293   3.248  0.00  0.00    +0.000 HD
ATOM     25  H   UNL     1     -18.921  -5.864   3.376  0.00  0.00    +0.000 HD
ENDBRANCH  21  22
BRANCH  21  26
ATOM     26  C   UNL     1     -20.300  -3.412   1.389  0.00  0.00    +0.000 C 
ATOM     27  H   UNL     1     -19.406  -2.789   1.271  0.00  0.00    +0.000 HD
ATOM     28  H   UNL     1     -20.369  -4.040   0.493  0.00  0.00    +0.000 HD
ATOM     29  H   UNL     1     -21.168  -2.743   1.395  0.00  0.00    +0.000 HD
ENDBRANCH  21  26
BRANCH  21  30
ATOM     30  C   UNL     1     -21.296  -5.401   2.497  0.00  0.00    +0.000 C 
ATOM     31  H   UNL     1     -22.116  -5.287   3.217  0.00  0.00    +0.000 HD
ATOM     32  H   UNL     1     -21.753  -5.388   1.500  0.00  0.00    +0.000 HD
ATOM     33  H   UNL     1     -20.863  -6.392   2.673  0.00  0.00    +0.000 HD
ENDBRANCH  21  30
ENDBRANCH   1  21
TORSDOF 8
ENDMDL
MODEL 7
REMARK VINA RESULT:    -5.012     14.229     15.746
REMARK INTER + INTRA:          -7.216
REMARK INTER:                  -6.803
REMARK INTRA:                  -0.413
REMARK UNBOUND:                -0.446
REMARK  Name = 605629
REMARK  8 active torsions:
REMARK  status: ('A' for Active; 'I' for Inactive)
REMARK    1  A    between atoms: O_1  and  C_14
REMARK    2  A    between atoms: O_1  and  C_15
REMARK    3  A    between atoms: C_3  and  C_4
REMARK    4  A    between atoms: C_3  and  C_5
REMARK    5  A    between atoms: C_3  and  C_6
REMARK    6  A    between atoms: C_3  and  C_7
REMARK    7  A    between atoms: C_10  and  C_13
REMARK    8  A    between atoms: C_13  and  C_14
REMARK                            x       y       z     vdW  Elec       q    Type
REMARK                         _______ _______ _______ _____ _____    ______ ____
ROOT
ATOM      1  C   UNL     1      14.739  -3.940   7.396  0.00  0.00    +0.000 A 
ATOM      2  C   UNL     1      15.000  -3.962   8.743  0.00  0.00    +0.000 A 
ATOM      3  C   UNL     1      13.551  -3.503   6.865  0.00  0.00    +0.000 A 
ATOM      4  C   UNL     1      12.788  -3.065   9.115  0.00  0.00    +0.000 A 
ATOM      5  C   UNL     1      14.008  -3.517   9.617  0.00  0.00    +0.000 A 
ATOM      6  C   UNL     1      12.559  -3.057   7.739  0.00  0.00    +0.000 A 
ATOM      7  H   UNL     1      15.940  -4.310   9.157  0.00  0.00    +0.000 HD
ATOM      8  H   UNL     1      13.320  -3.476   5.808  0.00  0.00    +0.000 HD
ATOM      9  H   UNL     1      14.197  -3.529  10.688  0.00  0.00    +0.000 HD
ATOM     10  H   UNL     1      11.613  -2.710   7.336  0.00  0.00    +0.000 HD
ENDROOT
BRANCH   4  11
ATOM     11  C   UNL     1      11.727  -2.589  10.049  0.00  0.00    +0.000 C 
ATOM     12  H   UNL     1      12.187  -2.202  10.967  0.00  0.00    +0.000 HD
ATOM     13  H   UNL     1      11.174  -1.762   9.588  0.00  0.00    +0.000 HD
BRANCH  11  15
ATOM     14  O   UNL     1      10.945  -4.871  10.368  0.00  0.00    +0.000 OA
ATOM     15  C   UNL     1      10.734  -3.667  10.436  0.00  0.00    +0.000 C 
BRANCH  15  16
ATOM     16  O   UNL     1       9.577  -3.083  10.870  0.00  0.00    +0.000 OA
BRANCH  16  17
ATOM     17  C   UNL     1       8.748  -3.899  11.704  0.00  0.00    +0.000 C 
ATOM     18  H   UNL     1       9.189  -4.894  11.817  0.00  0.00    +0.000 HD
ATOM     19  H   UNL     1       7.741  -3.968  11.284  0.00  0.00    +0.000 HD
ATOM     20  H   UNL     1       8.687  -3.428  12.688  0.00  0.00    +0.000 HD
ENDBRANCH  16  17
ENDBRANCH  15  16
ENDBRANCH  11  15
ENDBRANCH   4  11
BRANCH   1  21
ATOM     21  C   UNL     1      15.832  -4.432   6.433  0.00  0.00    +0.000 C 
BRANCH  21  22
ATOM     22  C   UNL     1      17.205  -4.383   7.137  0.00  0.00    +0.000 C 
ATOM     23  H   UNL     1      17.092  -4.442   8.226  0.00  0.00    +0.000 HD
ATOM     24  H   UNL     1      17.857  -5.211   6.840  0.00  0.00    +0.000 HD
ATOM     25  H   UNL     1      17.733  -3.449   6.908  0.00  0.00    +0.000 HD
ENDBRANCH  21  22
BRANCH  21  26
ATOM     26  C   UNL     1      15.869  -3.523   5.184  0.00  0.00    +0.000 C 
ATOM     27  H   UNL     1      16.889  -3.242   4.901  0.00  0.00    +0.000 HD
ATOM     28  H   UNL     1      15.426  -4.027   4.317  0.00  0.00    +0.000 HD
ATOM     29  H   UNL     1      15.308  -2.597   5.353  0.00  0.00    +0.000 HD
ENDBRANCH  21  26
BRANCH  21  30
ATOM     30  C   UNL     1      15.623  -5.880   5.936  0.00  0.00    +0.000 C 
ATOM     31  H   UNL     1      15.400  -6.551   6.775  0.00  0.00    +0.000 HD
ATOM     32  H   UNL     1      14.777  -5.957   5.242  0.00  0.00    +0.000 HD
ATOM     33  H   UNL     1      16.518  -6.279   5.446  0.00  0.00    +0.000 HD
ENDBRANCH  21  30
ENDBRANCH   1  21
TORSDOF 8
ENDMDL
MODEL 8
REMARK VINA RESULT:    -4.988     19.822     21.307
REMARK INTER + INTRA:          -7.184
REMARK INTER:                  -6.782
REMARK INTRA:                  -0.402
REMARK UNBOUND:                -0.446
REMARK  Name = 605629
REMARK  8 active torsions:
REMARK  status: ('A' for Active; 'I' for Inactive)
REMARK    1  A    between atoms: O_1  and  C_14
REMARK    2  A    between atoms: O_1  and  C_15
REMARK    3  A    between atoms: C_3  and  C_4
REMARK    4  A    between atoms: C_3  and  C_5
REMARK    5  A    between atoms: C_3  and  C_6
REMARK    6  A    between atoms: C_3  and  C_7
REMARK    7  A    between atoms: C_10  and  C_13
REMARK    8  A    between atoms: C_13  and  C_14
REMARK                            x       y       z     vdW  Elec       q    Type
REMARK                         _______ _______ _______ _____ _____    ______ ____
ROOT
ATOM      1  C   UNL     1      -0.698  -0.386 -12.486  0.00  0.00    +0.000 A 
ATOM      2  C   UNL     1      -0.555  -0.731 -13.807  0.00  0.00    +0.000 A 
ATOM      3  C   UNL     1       0.211   0.384 -11.805  0.00  0.00    +0.000 A 
ATOM      4  C   UNL     1       1.517   0.511 -13.833  0.00  0.00    +0.000 A 
ATOM      5  C   UNL     1       0.571  -0.275 -14.492  0.00  0.00    +0.000 A 
ATOM      6  C   UNL     1       1.337   0.840 -12.490  0.00  0.00    +0.000 A 
ATOM      7  H   UNL     1      -1.277  -1.341 -14.339  0.00  0.00    +0.000 HD
ATOM      8  H   UNL     1       0.121   0.669 -10.765  0.00  0.00    +0.000 HD
ATOM      9  H   UNL     1       0.702  -0.540 -15.538  0.00  0.00    +0.000 HD
ATOM     10  H   UNL     1       2.068   1.449 -11.965  0.00  0.00    +0.000 HD
ENDROOT
BRANCH   4  11
ATOM     11  C   UNL     1       2.722   0.998 -14.565  0.00  0.00    +0.000 C 
ATOM     12  H   UNL     1       2.469   1.182 -15.616  0.00  0.00    +0.000 HD
ATOM     13  H   UNL     1       3.051   1.953 -14.137  0.00  0.00    +0.000 HD
BRANCH  11  15
ATOM     14  O   UNL     1       4.190  -0.660 -13.557  0.00  0.00    +0.000 OA
ATOM     15  C   UNL     1       3.888   0.030 -14.521  0.00  0.00    +0.000 C 
BRANCH  15  16
ATOM     16  O   UNL     1       4.540   0.053 -15.722  0.00  0.00    +0.000 OA
BRANCH  16  17
ATOM     17  C   UNL     1       5.477  -1.008 -15.936  0.00  0.00    +0.000 C 
ATOM     18  H   UNL     1       5.090  -1.944 -15.521  0.00  0.00    +0.000 HD
ATOM     19  H   UNL     1       6.442  -0.757 -15.488  0.00  0.00    +0.000 HD
ATOM     20  H   UNL     1       5.612  -1.131 -17.014  0.00  0.00    +0.000 HD
ENDBRANCH  16  17
ENDBRANCH  15  16
ENDBRANCH  11  15
ENDBRANCH   4  11
BRANCH   1  21
ATOM     21  C   UNL     1      -1.939  -0.889 -11.731  0.00  0.00    +0.000 C 
BRANCH  21  22
ATOM     22  C   UNL     1      -1.961  -2.433 -11.737  0.00  0.00    +0.000 C 
ATOM     23  H   UNL     1      -2.229  -2.828 -10.749  0.00  0.00    +0.000 HD
ATOM     24  H   UNL     1      -2.686  -2.839 -12.448  0.00  0.00    +0.000 HD
ATOM     25  H   UNL     1      -0.977  -2.840 -12.001  0.00  0.00    +0.000 HD
ENDBRANCH  21  22
BRANCH  21  26
ATOM     26  C   UNL     1      -3.216  -0.362 -12.422  0.00  0.00    +0.000 C 
ATOM     27  H   UNL     1      -3.012   0.062 -13.411  0.00  0.00    +0.000 HD
ATOM     28  H   UNL     1      -3.947  -1.166 -12.566  0.00  0.00    +0.000 HD
ATOM     29  H   UNL     1      -3.695   0.420 -11.822  0.00  0.00    +0.000 HD
ENDBRANCH  21  26
BRANCH  21  30
ATOM     30  C   UNL     1      -2.000  -0.436 -10.255  0.00  0.00    +0.000 C 
ATOM     31  H   UNL     1      -2.676  -1.080  -9.678  0.00  0.00    +0.000 HD
ATOM     32  H   UNL     1      -1.020  -0.495  -9.767  0.00  0.00    +0.000 HD
ATOM     33  H   UNL     1      -2.383   0.586 -10.155  0.00  0.00    +0.000 HD
ENDBRANCH  21  30
ENDBRANCH   1  21
TORSDOF 8
ENDMDL
MODEL 9
REMARK VINA RESULT:    -4.842     13.229     15.306
REMARK INTER + INTRA:          -6.987
REMARK INTER:                  -6.539
REMARK INTRA:                  -0.449
REMARK UNBOUND:                -0.446
REMARK  Name = 605629
REMARK  8 active torsions:
REMARK  status: ('A' for Active; 'I' for Inactive)
REMARK    1  A    between atoms: O_1  and  C_14
REMARK    2  A    between atoms: O_1  and  C_15
REMARK    3  A    between atoms: C_3  and  C_4
REMARK    4  A    between atoms: C_3  and  C_5
REMARK    5  A    between atoms: C_3  and  C_6
REMARK    6  A    between atoms: C_3  and  C_7
REMARK    7  A    between atoms: C_10  and  C_13
REMARK    8  A    between atoms: C_13  and  C_14
REMARK                            x       y       z     vdW  Elec       q    Type
REMARK                         _______ _______ _______ _____ _____    ______ ____
ROOT
ATOM      1  C   UNL     1      13.032  -3.286   9.018  0.00  0.00    +0.000 A 
ATOM      2  C   UNL     1      11.868  -2.747   9.504  0.00  0.00    +0.000 A 
ATOM      3  C   UNL     1      14.171  -3.426   9.771  0.00  0.00    +0.000 A 
ATOM      4  C   UNL     1      12.977  -2.449  11.630  0.00  0.00    +0.000 A 
ATOM      5  C   UNL     1      11.839  -2.323  10.832  0.00  0.00    +0.000 A 
ATOM      6  C   UNL     1      14.142  -3.001  11.099  0.00  0.00    +0.000 A 
ATOM      7  H   UNL     1      10.972  -2.639   8.903  0.00  0.00    +0.000 HD
ATOM      8  H   UNL     1      15.101  -3.847   9.411  0.00  0.00    +0.000 HD
ATOM      9  H   UNL     1      10.925  -1.892  11.234  0.00  0.00    +0.000 HD
ATOM     10  H   UNL     1      15.035  -3.104  11.709  0.00  0.00    +0.000 HD
ENDROOT
BRANCH   4  11
ATOM     11  C   UNL     1      12.946  -1.994  13.050  0.00  0.00    +0.000 C 
ATOM     12  H   UNL     1      12.357  -2.696  13.652  0.00  0.00    +0.000 HD
ATOM     13  H   UNL     1      13.965  -1.991  13.457  0.00  0.00    +0.000 HD
BRANCH  11  15
ATOM     14  O   UNL     1      11.205  -0.373  13.557  0.00  0.00    +0.000 OA
ATOM     15  C   UNL     1      12.359  -0.608  13.228  0.00  0.00    +0.000 C 
BRANCH  15  16
ATOM     16  O   UNL     1      13.321   0.328  12.965  0.00  0.00    +0.000 OA
BRANCH  16  17
ATOM     17  C   UNL     1      12.894   1.691  13.051  0.00  0.00    +0.000 C 
ATOM     18  H   UNL     1      12.201   1.820  13.888  0.00  0.00    +0.000 HD
ATOM     19  H   UNL     1      12.427   2.001  12.111  0.00  0.00    +0.000 HD
ATOM     20  H   UNL     1      13.776   2.314  13.226  0.00  0.00    +0.000 HD
ENDBRANCH  16  17
ENDBRANCH  15  16
ENDBRANCH  11  15
ENDBRANCH   4  11
BRANCH   1  21
ATOM     21  C   UNL     1      13.064  -3.754   7.553  0.00  0.00    +0.000 C 
BRANCH  21  22
ATOM     22  C   UNL     1      12.447  -2.667   6.647  0.00  0.00    +0.000 C 
ATOM     23  H   UNL     1      11.601  -3.065   6.073  0.00  0.00    +0.000 HD
ATOM     24  H   UNL     1      12.070  -1.811   7.216  0.00  0.00    +0.000 HD
ATOM     25  H   UNL     1      13.185  -2.286   5.930  0.00  0.00    +0.000 HD
ENDBRANCH  21  22
BRANCH  21  26
ATOM     26  C   UNL     1      12.250  -5.058   7.408  0.00  0.00    +0.000 C 
ATOM     27  H   UNL     1      12.865  -5.954   7.546  0.00  0.00    +0.000 HD
ATOM     28  H   UNL     1      11.447  -5.107   8.153  0.00  0.00    +0.000 HD
ATOM     29  H   UNL     1      11.788  -5.127   6.416  0.00  0.00    +0.000 HD
ENDBRANCH  21  26
BRANCH  21  30
ATOM     30  C   UNL     1      14.485  -4.043   7.019  0.00  0.00    +0.000 C 
ATOM     31  H   UNL     1      15.094  -3.131   7.021  0.00  0.00    +0.000 HD
ATOM     32  H   UNL     1      15.016  -4.774   7.642  0.00  0.00    +0.000 HD
ATOM     33  H   UNL     1      14.470  -4.406   5.986  0.00  0.00    +0.000 HD
ENDBRANCH  21  30
ENDBRANCH   1  21
TORSDOF 8
ENDMDL
MODEL 10
REMARK VINA RESULT:    -4.820     17.039     20.154
REMARK INTER + INTRA:          -6.958
REMARK INTER:                  -6.511
REMARK INTRA:                  -0.446
REMARK UNBOUND:                -0.446
REMARK  Name = 605629
REMARK  8 active torsions:
REMARK  status: ('A' for Active; 'I' for Inactive)
REMARK    1  A    between atoms: O_1  and  C_14
REMARK    2  A    between atoms: O_1  and  C_15
REMARK    3  A    between atoms: C_3  and  C_4
REMARK    4  A    between atoms: C_3  and  C_5
REMARK    5  A    between atoms: C_3  and  C_6
REMARK    6  A    between atoms: C_3  and  C_7
REMARK    7  A    between atoms: C_10  and  C_13
REMARK    8  A    between atoms: C_13  and  C_14
REMARK                            x       y       z     vdW  Elec       q    Type
REMARK                         _______ _______ _______ _____ _____    ______ ____
ROOT
ATOM      1  C   UNL     1       1.509  12.197 -15.602  0.00  0.00    +0.000 A 
ATOM      2  C   UNL     1       0.865  12.890 -14.608  0.00  0.00    +0.000 A 
ATOM      3  C   UNL     1       1.290  10.866 -15.858  0.00  0.00    +0.000 A 
ATOM      4  C   UNL     1      -0.310  10.855 -14.048  0.00  0.00    +0.000 A 
ATOM      5  C   UNL     1      -0.060  12.208 -13.818  0.00  0.00    +0.000 A 
ATOM      6  C   UNL     1       0.365  10.184 -15.068  0.00  0.00    +0.000 A 
ATOM      7  H   UNL     1       1.043  13.941 -14.411  0.00  0.00    +0.000 HD
ATOM      8  H   UNL     1       1.785  10.298 -16.634  0.00  0.00    +0.000 HD
ATOM      9  H   UNL     1      -0.578  12.741 -13.025  0.00  0.00    +0.000 HD
ATOM     10  H   UNL     1       0.181   9.130 -15.255  0.00  0.00    +0.000 HD
ENDROOT
BRANCH   4  11
ATOM     11  C   UNL     1      -1.298  10.125 -13.203  0.00  0.00    +0.000 C 
ATOM     12  H   UNL     1      -2.019  10.834 -12.778  0.00  0.00    +0.000 HD
ATOM     13  H   UNL     1      -1.864   9.419 -13.824  0.00  0.00    +0.000 HD
BRANCH  11  15
ATOM     14  O   UNL     1      -0.135   8.255 -12.169  0.00  0.00    +0.000 OA
ATOM     15  C   UNL     1      -0.665   9.353 -12.062  0.00  0.00    +0.000 C 
BRANCH  15  16
ATOM     16  O   UNL     1      -0.780  10.076 -10.908  0.00  0.00    +0.000 OA
BRANCH  16  17
ATOM     17  C   UNL     1      -1.826   9.663 -10.022  0.00  0.00    +0.000 C 
ATOM     18  H   UNL     1      -1.413   9.073  -9.198  0.00  0.00    +0.000 HD
ATOM     19  H   UNL     1      -2.579   9.088 -10.569  0.00  0.00    +0.000 HD
ATOM     20  H   UNL     1      -2.298  10.559  -9.611  0.00  0.00    +0.000 HD
ENDBRANCH  16  17
ENDBRANCH  15  16
ENDBRANCH  11  15
ENDBRANCH   4  11
BRANCH   1  21
ATOM     21  C   UNL     1       2.529  12.949 -16.473  0.00  0.00    +0.000 C 
BRANCH  21  22
ATOM     22  C   UNL     1       3.083  14.162 -15.695  0.00  0.00    +0.000 C 
ATOM     23  H   UNL     1       2.405  15.021 -15.769  0.00  0.00    +0.000 HD
ATOM     24  H   UNL     1       3.213  13.952 -14.628  0.00  0.00    +0.000 HD
ATOM     25  H   UNL     1       4.057  14.473 -16.090  0.00  0.00    +0.000 HD
ENDBRANCH  21  22
BRANCH  21  26
ATOM     26  C   UNL     1       1.843  13.445 -17.765  0.00  0.00    +0.000 C 
ATOM     27  H   UNL     1       1.280  14.372 -17.610  0.00  0.00    +0.000 HD
ATOM     28  H   UNL     1       2.580  13.649 -18.550  0.00  0.00    +0.000 HD
ATOM     29  H   UNL     1       1.142  12.696 -18.152  0.00  0.00    +0.000 HD
ENDBRANCH  21  26
BRANCH  21  30
ATOM     30  C   UNL     1       3.740  12.090 -16.902  0.00  0.00    +0.000 C 
ATOM     31  H   UNL     1       3.522  11.022 -16.778  0.00  0.00    +0.000 HD
ATOM     32  H   UNL     1       3.992  12.235 -17.960  0.00  0.00    +0.000 HD
ATOM     33  H   UNL     1       4.628  12.300 -16.296  0.00  0.00    +0.000 HD
ENDBRANCH  21  30
ENDBRANCH   1  21
TORSDOF 8
ENDMDL
