MODEL 1
REMARK VINA RESULT:    -3.595      0.000      0.000
REMARK INTER + INTRA:          -4.453
REMARK INTER:                  -4.366
REMARK INTRA:                  -0.087
REMARK UNBOUND:                -0.017
REMARK  Name = 12180
REMARK  5 active torsions:
REMARK  status: ('A' for Active; 'I' for Inactive)
REMARK    1  A    between atoms: O_1  and  C_6
REMARK    2  A    between atoms: O_1  and  C_7
REMARK    3  A    between atoms: C_3  and  C_4
REMARK    4  A    between atoms: C_3  and  C_5
REMARK    5  A    between atoms: C_4  and  C_6
REMARK                            x       y       z     vdW  Elec       q    Type
REMARK                         _______ _______ _______ _____ _____    ______ ____
ROOT
ATOM      1  C   UNL     1       4.244  10.099   0.430  0.00  0.00    +0.000 C 
ATOM      2  H   UNL     1       3.983   9.694  -0.554  0.00  0.00    +0.000 HD
ATOM      3  H   UNL     1       5.332  10.068   0.551  0.00  0.00    +0.000 HD
ENDROOT
BRANCH   1   4
ATOM      4  C   UNL     1       3.580   9.268   1.524  0.00  0.00    +0.000 C 
ATOM      5  H   UNL     1       2.717   9.808   1.933  0.00  0.00    +0.000 HD
ATOM      6  H   UNL     1       3.195   8.332   1.101  0.00  0.00    +0.000 HD
BRANCH   4   7
ATOM      7  C   UNL     1       4.551   8.947   2.648  0.00  0.00    +0.000 C 
ATOM      8  H   UNL     1       4.026   8.467   3.478  0.00  0.00    +0.000 HD
ATOM      9  H   UNL     1       5.338   8.267   2.305  0.00  0.00    +0.000 HD
ATOM     10  H   UNL     1       5.027   9.858   3.027  0.00  0.00    +0.000 HD
ENDBRANCH   4   7
ENDBRANCH   1   4
BRANCH   1  12
ATOM     11  O   UNL     1       2.644  11.931   0.486  0.00  0.00    +0.000 OA
ATOM     12  C   UNL     1       3.806  11.546   0.472  0.00  0.00    +0.000 C 
BRANCH  12  13
ATOM     13  O   UNL     1       4.914  12.344   0.494  0.00  0.00    +0.000 OA
BRANCH  13  14
ATOM     14  C   UNL     1       6.114  11.746  -0.008  0.00  0.00    +0.000 C 
ATOM     15  H   UNL     1       6.235  10.739   0.402  0.00  0.00    +0.000 HD
ATOM     16  H   UNL     1       6.959  12.359   0.313  0.00  0.00    +0.000 HD
ATOM     17  H   UNL     1       6.094  11.720  -1.102  0.00  0.00    +0.000 HD
ENDBRANCH  13  14
ENDBRANCH  12  13
ENDBRANCH   1  12
TORSDOF 5
ENDMDL
MODEL 2
REMARK VINA RESULT:    -3.580      1.872      2.341
REMARK INTER + INTRA:          -4.434
REMARK INTER:                  -4.398
REMARK INTRA:                  -0.037
REMARK UNBOUND:                -0.017
REMARK  Name = 12180
REMARK  5 active torsions:
REMARK  status: ('A' for Active; 'I' for Inactive)
REMARK    1  A    between atoms: O_1  and  C_6
REMARK    2  A    between atoms: O_1  and  C_7
REMARK    3  A    between atoms: C_3  and  C_4
REMARK    4  A    between atoms: C_3  and  C_5
REMARK    5  A    between atoms: C_4  and  C_6
REMARK                            x       y       z     vdW  Elec       q    Type
REMARK                         _______ _______ _______ _____ _____    ______ ____
ROOT
ATOM      1  C   UNL     1       4.539   9.669   0.505  0.00  0.00    +0.000 C 
ATOM      2  H   UNL     1       3.950   9.173  -0.275  0.00  0.00    +0.000 HD
ATOM      3  H   UNL     1       5.117  10.482   0.053  0.00  0.00    +0.000 HD
ENDROOT
BRANCH   1   4
ATOM      4  C   UNL     1       5.485   8.665   1.156  0.00  0.00    +0.000 C 
ATOM      5  H   UNL     1       5.948   9.110   2.046  0.00  0.00    +0.000 HD
ATOM      6  H   UNL     1       4.923   7.787   1.499  0.00  0.00    +0.000 HD
BRANCH   4   7
ATOM      7  C   UNL     1       6.573   8.217   0.194  0.00  0.00    +0.000 C 
ATOM      8  H   UNL     1       7.181   9.072  -0.116  0.00  0.00    +0.000 HD
ATOM      9  H   UNL     1       7.234   7.482   0.664  0.00  0.00    +0.000 HD
ATOM     10  H   UNL     1       6.139   7.765  -0.704  0.00  0.00    +0.000 HD
ENDBRANCH   4   7
ENDBRANCH   1   4
BRANCH   1  12
ATOM     11  O   UNL     1       3.123   9.696   2.484  0.00  0.00    +0.000 OA
ATOM     12  C   UNL     1       3.577  10.272   1.504  0.00  0.00    +0.000 C 
BRANCH  12  13
ATOM     13  O   UNL     1       3.303  11.558   1.134  0.00  0.00    +0.000 OA
BRANCH  13  14
ATOM     14  C   UNL     1       3.346  11.817  -0.273  0.00  0.00    +0.000 C 
ATOM     15  H   UNL     1       4.330  11.555  -0.676  0.00  0.00    +0.000 HD
ATOM     16  H   UNL     1       3.177  12.885  -0.428  0.00  0.00    +0.000 HD
ATOM     17  H   UNL     1       2.557  11.258  -0.785  0.00  0.00    +0.000 HD
ENDBRANCH  13  14
ENDBRANCH  12  13
ENDBRANCH   1  12
TORSDOF 5
ENDMDL
MODEL 3
REMARK VINA RESULT:    -3.576      1.186      3.045
REMARK INTER + INTRA:          -4.429
REMARK INTER:                  -4.378
REMARK INTRA:                  -0.051
REMARK UNBOUND:                -0.017
REMARK  Name = 12180
REMARK  5 active torsions:
REMARK  status: ('A' for Active; 'I' for Inactive)
REMARK    1  A    between atoms: O_1  and  C_6
REMARK    2  A    between atoms: O_1  and  C_7
REMARK    3  A    between atoms: C_3  and  C_4
REMARK    4  A    between atoms: C_3  and  C_5
REMARK    5  A    between atoms: C_4  and  C_6
REMARK                            x       y       z     vdW  Elec       q    Type
REMARK                         _______ _______ _______ _____ _____    ______ ____
ROOT
ATOM      1  C   UNL     1       4.951  10.421   0.457  0.00  0.00    +0.000 C 
ATOM      2  H   UNL     1       5.452   9.868   1.260  0.00  0.00    +0.000 HD
ATOM      3  H   UNL     1       4.772   9.743  -0.385  0.00  0.00    +0.000 HD
ENDROOT
BRANCH   1   4
ATOM      4  C   UNL     1       5.829  11.583   0.004  0.00  0.00    +0.000 C 
ATOM      5  H   UNL     1       5.201  12.423  -0.319  0.00  0.00    +0.000 HD
ATOM      6  H   UNL     1       6.433  11.946   0.845  0.00  0.00    +0.000 HD
BRANCH   4   7
ATOM      7  C   UNL     1       6.750  11.177  -1.134  0.00  0.00    +0.000 C 
ATOM      8  H   UNL     1       7.792  11.377  -0.869  0.00  0.00    +0.000 HD
ATOM      9  H   UNL     1       6.655  10.108  -1.353  0.00  0.00    +0.000 HD
ATOM     10  H   UNL     1       6.517  11.736  -2.046  0.00  0.00    +0.000 HD
ENDBRANCH   4   7
ENDBRANCH   1   4
BRANCH   1  12
ATOM     11  O   UNL     1       2.953  11.808   0.506  0.00  0.00    +0.000 OA
ATOM     12  C   UNL     1       3.611  10.891   0.978  0.00  0.00    +0.000 C 
BRANCH  12  13
ATOM     13  O   UNL     1       3.263  10.127   2.055  0.00  0.00    +0.000 OA
BRANCH  13  14
ATOM     14  C   UNL     1       4.190   9.094   2.404  0.00  0.00    +0.000 C 
ATOM     15  H   UNL     1       3.876   8.140   1.967  0.00  0.00    +0.000 HD
ATOM     16  H   UNL     1       4.195   8.995   3.492  0.00  0.00    +0.000 HD
ATOM     17  H   UNL     1       5.197   9.360   2.070  0.00  0.00    +0.000 HD
ENDBRANCH  13  14
ENDBRANCH  12  13
ENDBRANCH   1  12
TORSDOF 5
ENDMDL
MODEL 4
REMARK VINA RESULT:    -3.536     12.550     13.105
REMARK INTER + INTRA:          -4.380
REMARK INTER:                  -4.280
REMARK INTRA:                  -0.100
REMARK UNBOUND:                -0.017
REMARK  Name = 12180
REMARK  5 active torsions:
REMARK  status: ('A' for Active; 'I' for Inactive)
REMARK    1  A    between atoms: O_1  and  C_6
REMARK    2  A    between atoms: O_1  and  C_7
REMARK    3  A    between atoms: C_3  and  C_4
REMARK    4  A    between atoms: C_3  and  C_5
REMARK    5  A    between atoms: C_4  and  C_6
REMARK                            x       y       z     vdW  Elec       q    Type
REMARK                         _______ _______ _______ _____ _____    ______ ____
ROOT
ATOM      1  C   UNL     1      -2.432   8.970  -8.993  0.00  0.00    +0.000 C 
ATOM      2  H   UNL     1      -1.400   8.684  -8.756  0.00  0.00    +0.000 HD
ATOM      3  H   UNL     1      -2.821   9.603  -8.188  0.00  0.00    +0.000 HD
ENDROOT
BRANCH   1   4
ATOM      4  C   UNL     1      -3.297   7.720  -9.128  0.00  0.00    +0.000 C 
ATOM      5  H   UNL     1      -3.304   7.166  -8.181  0.00  0.00    +0.000 HD
ATOM      6  H   UNL     1      -4.336   8.004  -9.336  0.00  0.00    +0.000 HD
BRANCH   4   7
ATOM      7  C   UNL     1      -2.795   6.811 -10.238  0.00  0.00    +0.000 C 
ATOM      8  H   UNL     1      -3.288   5.836 -10.182  0.00  0.00    +0.000 HD
ATOM      9  H   UNL     1      -3.005   7.242 -11.223  0.00  0.00    +0.000 HD
ATOM     10  H   UNL     1      -1.715   6.652 -10.156  0.00  0.00    +0.000 HD
ENDBRANCH   4   7
ENDBRANCH   1   4
BRANCH   1  12
ATOM     11  O   UNL     1      -3.397  10.124 -10.905  0.00  0.00    +0.000 OA
ATOM     12  C   UNL     1      -2.410   9.785 -10.267  0.00  0.00    +0.000 C 
BRANCH  12  13
ATOM     13  O   UNL     1      -1.114  10.078 -10.582  0.00  0.00    +0.000 OA
BRANCH  13  14
ATOM     14  C   UNL     1      -0.618   9.471 -11.780  0.00  0.00    +0.000 C 
ATOM     15  H   UNL     1       0.462   9.630 -11.865  0.00  0.00    +0.000 HD
ATOM     16  H   UNL     1      -1.110   9.946 -12.631  0.00  0.00    +0.000 HD
ATOM     17  H   UNL     1      -0.854   8.403 -11.788  0.00  0.00    +0.000 HD
ENDBRANCH  13  14
ENDBRANCH  12  13
ENDBRANCH   1  12
TORSDOF 5
ENDMDL
MODEL 5
REMARK VINA RESULT:    -3.460     12.976     13.549
REMARK INTER + INTRA:          -4.287
REMARK INTER:                  -4.217
REMARK INTRA:                  -0.070
REMARK UNBOUND:                -0.017
REMARK  Name = 12180
REMARK  5 active torsions:
REMARK  status: ('A' for Active; 'I' for Inactive)
REMARK    1  A    between atoms: O_1  and  C_6
REMARK    2  A    between atoms: O_1  and  C_7
REMARK    3  A    between atoms: C_3  and  C_4
REMARK    4  A    between atoms: C_3  and  C_5
REMARK    5  A    between atoms: C_4  and  C_6
REMARK                            x       y       z     vdW  Elec       q    Type
REMARK                         _______ _______ _______ _____ _____    ______ ____
ROOT
ATOM      1  C   UNL     1      -2.762   6.689 -10.537  0.00  0.00    +0.000 C 
ATOM      2  H   UNL     1      -3.624   6.553 -11.200  0.00  0.00    +0.000 HD
ATOM      3  H   UNL     1      -2.157   5.776 -10.546  0.00  0.00    +0.000 HD
ENDROOT
BRANCH   1   4
ATOM      4  C   UNL     1      -3.242   6.974  -9.116  0.00  0.00    +0.000 C 
ATOM      5  H   UNL     1      -2.529   6.563  -8.391  0.00  0.00    +0.000 HD
ATOM      6  H   UNL     1      -3.280   8.057  -8.944  0.00  0.00    +0.000 HD
BRANCH   4   7
ATOM      7  C   UNL     1      -4.617   6.379  -8.863  0.00  0.00    +0.000 C 
ATOM      8  H   UNL     1      -5.355   7.175  -8.724  0.00  0.00    +0.000 HD
ATOM      9  H   UNL     1      -4.939   5.761  -9.707  0.00  0.00    +0.000 HD
ATOM     10  H   UNL     1      -4.615   5.757  -7.962  0.00  0.00    +0.000 HD
ENDBRANCH   4   7
ENDBRANCH   1   4
BRANCH   1  12
ATOM     11  O   UNL     1      -1.072   7.705 -11.963  0.00  0.00    +0.000 OA
ATOM     12  C   UNL     1      -1.921   7.819 -11.088  0.00  0.00    +0.000 C 
BRANCH  12  13
ATOM     13  O   UNL     1      -2.266   8.978 -10.454  0.00  0.00    +0.000 OA
BRANCH  13  14
ATOM     14  C   UNL     1      -1.259   9.995 -10.437  0.00  0.00    +0.000 C 
ATOM     15  H   UNL     1      -1.722  10.986 -10.466  0.00  0.00    +0.000 HD
ATOM     16  H   UNL     1      -0.637   9.872 -11.327  0.00  0.00    +0.000 HD
ATOM     17  H   UNL     1      -0.628   9.887  -9.549  0.00  0.00    +0.000 HD
ENDBRANCH  13  14
ENDBRANCH  12  13
ENDBRANCH   1  12
TORSDOF 5
ENDMDL
MODEL 6
REMARK VINA RESULT:    -3.407     28.124     29.125
REMARK INTER + INTRA:          -4.221
REMARK INTER:                  -4.168
REMARK INTRA:                  -0.054
REMARK UNBOUND:                -0.017
REMARK  Name = 12180
REMARK  5 active torsions:
REMARK  status: ('A' for Active; 'I' for Inactive)
REMARK    1  A    between atoms: O_1  and  C_6
REMARK    2  A    between atoms: O_1  and  C_7
REMARK    3  A    between atoms: C_3  and  C_4
REMARK    4  A    between atoms: C_3  and  C_5
REMARK    5  A    between atoms: C_4  and  C_6
REMARK                            x       y       z     vdW  Elec       q    Type
REMARK                         _______ _______ _______ _____ _____    ______ ____
ROOT
ATOM      1  C   UNL     1     -20.048  -1.027   6.824  0.00  0.00    +0.000 C 
ATOM      2  H   UNL     1     -19.244  -0.394   7.217  0.00  0.00    +0.000 HD
ATOM      3  H   UNL     1     -19.661  -2.041   6.674  0.00  0.00    +0.000 HD
ENDROOT
BRANCH   1   4
ATOM      4  C   UNL     1     -20.546  -0.465   5.495  0.00  0.00    +0.000 C 
ATOM      5  H   UNL     1     -21.361   0.248   5.672  0.00  0.00    +0.000 HD
ATOM      6  H   UNL     1     -19.741   0.092   4.999  0.00  0.00    +0.000 HD
BRANCH   4   7
ATOM      7  C   UNL     1     -21.034  -1.568   4.571  0.00  0.00    +0.000 C 
ATOM      8  H   UNL     1     -20.288  -2.365   4.503  0.00  0.00    +0.000 HD
ATOM      9  H   UNL     1     -21.966  -2.007   4.942  0.00  0.00    +0.000 HD
ATOM     10  H   UNL     1     -21.214  -1.183   3.562  0.00  0.00    +0.000 HD
ENDBRANCH   4   7
ENDBRANCH   1   4
BRANCH   1  12
ATOM     11  O   UNL     1     -21.588  -0.128   8.478  0.00  0.00    +0.000 OA
ATOM     12  C   UNL     1     -21.146  -1.088   7.861  0.00  0.00    +0.000 C 
BRANCH  12  13
ATOM     13  O   UNL     1     -21.559  -2.383   7.993  0.00  0.00    +0.000 OA
BRANCH  13  14
ATOM     14  C   UNL     1     -22.722  -2.580   8.804  0.00  0.00    +0.000 C 
ATOM     15  H   UNL     1     -23.187  -3.542   8.570  0.00  0.00    +0.000 HD
ATOM     16  H   UNL     1     -23.433  -1.782   8.577  0.00  0.00    +0.000 HD
ATOM     17  H   UNL     1     -22.457  -2.524   9.864  0.00  0.00    +0.000 HD
ENDBRANCH  13  14
ENDBRANCH  12  13
ENDBRANCH   1  12
TORSDOF 5
ENDMDL
MODEL 7
REMARK VINA RESULT:    -3.324      2.060      3.082
REMARK INTER + INTRA:          -4.119
REMARK INTER:                  -4.031
REMARK INTRA:                  -0.088
REMARK UNBOUND:                -0.017
REMARK  Name = 12180
REMARK  5 active torsions:
REMARK  status: ('A' for Active; 'I' for Inactive)
REMARK    1  A    between atoms: O_1  and  C_6
REMARK    2  A    between atoms: O_1  and  C_7
REMARK    3  A    between atoms: C_3  and  C_4
REMARK    4  A    between atoms: C_3  and  C_5
REMARK    5  A    between atoms: C_4  and  C_6
REMARK                            x       y       z     vdW  Elec       q    Type
REMARK                         _______ _______ _______ _____ _____    ______ ____
ROOT
ATOM      1  C   UNL     1       3.701   9.333   0.151  0.00  0.00    +0.000 C 
ATOM      2  H   UNL     1       4.342   8.519  -0.208  0.00  0.00    +0.000 HD
ATOM      3  H   UNL     1       2.658   9.095  -0.083  0.00  0.00    +0.000 HD
ENDROOT
BRANCH   1   4
ATOM      4  C   UNL     1       4.096  10.640  -0.531  0.00  0.00    +0.000 C 
ATOM      5  H   UNL     1       5.160  10.845  -0.359  0.00  0.00    +0.000 HD
ATOM      6  H   UNL     1       3.963  10.550  -1.617  0.00  0.00    +0.000 HD
BRANCH   4   7
ATOM      7  C   UNL     1       3.269  11.808  -0.021  0.00  0.00    +0.000 C 
ATOM      8  H   UNL     1       3.633  12.132   0.958  0.00  0.00    +0.000 HD
ATOM      9  H   UNL     1       3.330  12.660  -0.705  0.00  0.00    +0.000 HD
ATOM     10  H   UNL     1       2.216  11.526   0.084  0.00  0.00    +0.000 HD
ENDBRANCH   4   7
ENDBRANCH   1   4
BRANCH   1  12
ATOM     11  O   UNL     1       2.914   9.429   2.451  0.00  0.00    +0.000 OA
ATOM     12  C   UNL     1       3.843   9.412   1.654  0.00  0.00    +0.000 C 
BRANCH  12  13
ATOM     13  O   UNL     1       5.170   9.460   1.971  0.00  0.00    +0.000 OA
BRANCH  13  14
ATOM     14  C   UNL     1       5.897   8.244   1.771  0.00  0.00    +0.000 C 
ATOM     15  H   UNL     1       5.226   7.457   1.412  0.00  0.00    +0.000 HD
ATOM     16  H   UNL     1       6.315   7.935   2.733  0.00  0.00    +0.000 HD
ATOM     17  H   UNL     1       6.718   8.405   1.066  0.00  0.00    +0.000 HD
ENDBRANCH  13  14
ENDBRANCH  12  13
ENDBRANCH   1  12
TORSDOF 5
ENDMDL
MODEL 8
REMARK VINA RESULT:    -3.184      1.782      2.307
REMARK INTER + INTRA:          -3.945
REMARK INTER:                  -3.901
REMARK INTRA:                  -0.044
REMARK UNBOUND:                -0.017
REMARK  Name = 12180
REMARK  5 active torsions:
REMARK  status: ('A' for Active; 'I' for Inactive)
REMARK    1  A    between atoms: O_1  and  C_6
REMARK    2  A    between atoms: O_1  and  C_7
REMARK    3  A    between atoms: C_3  and  C_4
REMARK    4  A    between atoms: C_3  and  C_5
REMARK    5  A    between atoms: C_4  and  C_6
REMARK                            x       y       z     vdW  Elec       q    Type
REMARK                         _______ _______ _______ _____ _____    ______ ____
ROOT
ATOM      1  C   UNL     1       3.766   8.307   2.181  0.00  0.00    +0.000 C 
ATOM      2  H   UNL     1       2.967   8.342   2.930  0.00  0.00    +0.000 HD
ATOM      3  H   UNL     1       3.577   7.473   1.496  0.00  0.00    +0.000 HD
ENDROOT
BRANCH   1   4
ATOM      4  C   UNL     1       5.113   8.111   2.870  0.00  0.00    +0.000 C 
ATOM      5  H   UNL     1       5.917   8.102   2.124  0.00  0.00    +0.000 HD
ATOM      6  H   UNL     1       5.316   8.955   3.542  0.00  0.00    +0.000 HD
BRANCH   4   7
ATOM      7  C   UNL     1       5.151   6.818   3.666  0.00  0.00    +0.000 C 
ATOM      8  H   UNL     1       4.420   6.107   3.269  0.00  0.00    +0.000 HD
ATOM      9  H   UNL     1       6.141   6.353   3.613  0.00  0.00    +0.000 HD
ATOM     10  H   UNL     1       4.912   6.998   4.719  0.00  0.00    +0.000 HD
ENDBRANCH   4   7
ENDBRANCH   1   4
BRANCH   1  12
ATOM     11  O   UNL     1       3.134  10.612   1.727  0.00  0.00    +0.000 OA
ATOM     12  C   UNL     1       3.717   9.592   1.385  0.00  0.00    +0.000 C 
BRANCH  12  13
ATOM     13  O   UNL     1       4.427   9.424   0.231  0.00  0.00    +0.000 OA
BRANCH  13  14
ATOM     14  C   UNL     1       5.181  10.562  -0.200  0.00  0.00    +0.000 C 
ATOM     15  H   UNL     1       6.005  10.247  -0.849  0.00  0.00    +0.000 HD
ATOM     16  H   UNL     1       5.599  11.048   0.685  0.00  0.00    +0.000 HD
ATOM     17  H   UNL     1       4.531  11.273  -0.717  0.00  0.00    +0.000 HD
ENDBRANCH  13  14
ENDBRANCH  12  13
ENDBRANCH   1  12
TORSDOF 5
ENDMDL
MODEL 9
REMARK VINA RESULT:    -3.143     27.381     28.652
REMARK INTER + INTRA:          -3.895
REMARK INTER:                  -3.824
REMARK INTRA:                  -0.070
REMARK UNBOUND:                -0.017
REMARK  Name = 12180
REMARK  5 active torsions:
REMARK  status: ('A' for Active; 'I' for Inactive)
REMARK    1  A    between atoms: O_1  and  C_6
REMARK    2  A    between atoms: O_1  and  C_7
REMARK    3  A    between atoms: C_3  and  C_4
REMARK    4  A    between atoms: C_3  and  C_5
REMARK    5  A    between atoms: C_4  and  C_6
REMARK                            x       y       z     vdW  Elec       q    Type
REMARK                         _______ _______ _______ _____ _____    ______ ____
ROOT
ATOM      1  C   UNL     1     -19.508  -4.531   3.272  0.00  0.00    +0.000 C 
ATOM      2  H   UNL     1     -20.584  -4.568   3.069  0.00  0.00    +0.000 HD
ATOM      3  H   UNL     1     -19.150  -3.508   3.117  0.00  0.00    +0.000 HD
ENDROOT
BRANCH   1   4
ATOM      4  C   UNL     1     -18.772  -5.481   2.331  0.00  0.00    +0.000 C 
ATOM      5  H   UNL     1     -18.527  -6.412   2.857  0.00  0.00    +0.000 HD
ATOM      6  H   UNL     1     -19.423  -5.755   1.491  0.00  0.00    +0.000 HD
BRANCH   4   7
ATOM      7  C   UNL     1     -17.497  -4.856   1.792  0.00  0.00    +0.000 C 
ATOM      8  H   UNL     1     -17.227  -5.310   0.834  0.00  0.00    +0.000 HD
ATOM      9  H   UNL     1     -17.623  -3.780   1.634  0.00  0.00    +0.000 HD
ATOM     10  H   UNL     1     -16.663  -5.006   2.486  0.00  0.00    +0.000 HD
ENDBRANCH   4   7
ENDBRANCH   1   4
BRANCH   1  12
ATOM     11  O   UNL     1     -18.444  -5.670   5.140  0.00  0.00    +0.000 OA
ATOM     12  C   UNL     1     -19.292  -4.892   4.725  0.00  0.00    +0.000 C 
BRANCH  12  13
ATOM     13  O   UNL     1     -20.194  -4.208   5.489  0.00  0.00    +0.000 OA
BRANCH  13  14
ATOM     14  C   UNL     1     -21.506  -4.083   4.930  0.00  0.00    +0.000 C 
ATOM     15  H   UNL     1     -21.590  -3.148   4.367  0.00  0.00    +0.000 HD
ATOM     16  H   UNL     1     -22.225  -4.062   5.753  0.00  0.00    +0.000 HD
ATOM     17  H   UNL     1     -21.728  -4.942   4.291  0.00  0.00    +0.000 HD
ENDBRANCH  13  14
ENDBRANCH  12  13
ENDBRANCH   1  12
TORSDOF 5
ENDMDL
MODEL 10
REMARK VINA RESULT:    -3.127     28.167     29.049
REMARK INTER + INTRA:          -3.875
REMARK INTER:                  -3.858
REMARK INTRA:                  -0.017
REMARK UNBOUND:                -0.017
REMARK  Name = 12180
REMARK  5 active torsions:
REMARK  status: ('A' for Active; 'I' for Inactive)
REMARK    1  A    between atoms: O_1  and  C_6
REMARK    2  A    between atoms: O_1  and  C_7
REMARK    3  A    between atoms: C_3  and  C_4
REMARK    4  A    between atoms: C_3  and  C_5
REMARK    5  A    between atoms: C_4  and  C_6
REMARK                            x       y       z     vdW  Elec       q    Type
REMARK                         _______ _______ _______ _____ _____    ______ ____
ROOT
ATOM      1  C   UNL     1     -20.839  -3.149   6.260  0.00  0.00    +0.000 C 
ATOM      2  H   UNL     1     -21.808  -3.289   6.754  0.00  0.00    +0.000 HD
ATOM      3  H   UNL     1     -20.039  -3.347   6.981  0.00  0.00    +0.000 HD
ENDROOT
BRANCH   1   4
ATOM      4  C   UNL     1     -20.724  -1.717   5.744  0.00  0.00    +0.000 C 
ATOM      5  H   UNL     1     -20.011  -1.675   4.912  0.00  0.00    +0.000 HD
ATOM      6  H   UNL     1     -21.692  -1.383   5.348  0.00  0.00    +0.000 HD
BRANCH   4   7
ATOM      7  C   UNL     1     -20.277  -0.764   6.839  0.00  0.00    +0.000 C 
ATOM      8  H   UNL     1     -19.185  -0.749   6.906  0.00  0.00    +0.000 HD
ATOM      9  H   UNL     1     -20.618   0.256   6.636  0.00  0.00    +0.000 HD
ATOM     10  H   UNL     1     -20.673  -1.071   7.813  0.00  0.00    +0.000 HD
ENDBRANCH   4   7
ENDBRANCH   1   4
BRANCH   1  12
ATOM     11  O   UNL     1     -21.629  -4.451   4.362  0.00  0.00    +0.000 OA
ATOM     12  C   UNL     1     -20.732  -4.164   5.144  0.00  0.00    +0.000 C 
BRANCH  12  13
ATOM     13  O   UNL     1     -19.477  -4.702   5.153  0.00  0.00    +0.000 OA
BRANCH  13  14
ATOM     14  C   UNL     1     -19.201  -5.643   4.111  0.00  0.00    +0.000 C 
ATOM     15  H   UNL     1     -20.128  -5.923   3.600  0.00  0.00    +0.000 HD
ATOM     16  H   UNL     1     -18.769  -6.538   4.567  0.00  0.00    +0.000 HD
ATOM     17  H   UNL     1     -18.479  -5.225   3.405  0.00  0.00    +0.000 HD
ENDBRANCH  13  14
ENDBRANCH  12  13
ENDBRANCH   1  12
TORSDOF 5
ENDMDL
