MODEL 1
REMARK VINA RESULT:    -4.741      0.000      0.000
REMARK INTER + INTRA:          -7.960
REMARK INTER:                  -7.440
REMARK INTRA:                  -0.520
REMARK UNBOUND:                -0.448
REMARK  Name = 8050
REMARK  11 active torsions:
REMARK  status: ('A' for Active; 'I' for Inactive)
REMARK    1  A    between atoms: O_1  and  C_12
REMARK    2  A    between atoms: O_1  and  C_13
REMARK    3  A    between atoms: C_3  and  C_4
REMARK    4  A    between atoms: C_3  and  C_5
REMARK    5  A    between atoms: C_4  and  C_6
REMARK    6  A    between atoms: C_5  and  C_7
REMARK    7  A    between atoms: C_6  and  C_8
REMARK    8  A    between atoms: C_7  and  C_9
REMARK    9  A    between atoms: C_8  and  C_10
REMARK   10  A    between atoms: C_9  and  C_11
REMARK   11  A    between atoms: C_10  and  C_12
REMARK                            x       y       z     vdW  Elec       q    Type
REMARK                         _______ _______ _______ _____ _____    ______ ____
ROOT
ATOM      1  C   UNL     1      -3.102   7.896  -8.950  0.00  0.00    +0.000 C 
ATOM      2  H   UNL     1      -3.939   7.812  -8.247  0.00  0.00    +0.000 HD
ATOM      3  H   UNL     1      -2.278   7.296  -8.545  0.00  0.00    +0.000 HD
ENDROOT
BRANCH   1   4
ATOM      4  C   UNL     1      -3.519   7.337 -10.313  0.00  0.00    +0.000 C 
ATOM      5  H   UNL     1      -3.650   8.160 -11.026  0.00  0.00    +0.000 HD
ATOM      6  H   UNL     1      -2.724   6.691 -10.705  0.00  0.00    +0.000 HD
BRANCH   4   7
ATOM      7  C   UNL     1      -4.820   6.538 -10.209  0.00  0.00    +0.000 C 
ATOM      8  H   UNL     1      -4.725   5.614 -10.793  0.00  0.00    +0.000 HD
ATOM      9  H   UNL     1      -5.636   7.116 -10.659  0.00  0.00    +0.000 HD
BRANCH   7  10
ATOM     10  C   UNL     1      -5.201   6.181  -8.769  0.00  0.00    +0.000 C 
ATOM     11  H   UNL     1      -5.297   7.104  -8.183  0.00  0.00    +0.000 HD
ATOM     12  H   UNL     1      -4.384   5.604  -8.319  0.00  0.00    +0.000 HD
BRANCH  10  13
ATOM     13  C   UNL     1      -6.501   5.383  -8.665  0.00  0.00    +0.000 C 
ATOM     14  H   UNL     1      -7.020   5.390  -9.629  0.00  0.00    +0.000 HD
ATOM     15  H   UNL     1      -6.277   4.338  -8.422  0.00  0.00    +0.000 HD
BRANCH  13  16
ATOM     16  C   UNL     1      -7.418   5.956  -7.594  0.00  0.00    +0.000 C 
ATOM     17  H   UNL     1      -7.304   7.042  -7.518  0.00  0.00    +0.000 HD
ATOM     18  H   UNL     1      -7.180   5.521  -6.619  0.00  0.00    +0.000 HD
ATOM     19  H   UNL     1      -8.467   5.735  -7.818  0.00  0.00    +0.000 HD
ENDBRANCH  13  16
ENDBRANCH  10  13
ENDBRANCH   7  10
ENDBRANCH   4   7
ENDBRANCH   1   4
BRANCH   1  20
ATOM     20  C   UNL     1      -2.664   9.357  -9.059  0.00  0.00    +0.000 C 
ATOM     21  H   UNL     1      -3.405  10.002  -8.573  0.00  0.00    +0.000 HD
ATOM     22  H   UNL     1      -1.716   9.495  -8.524  0.00  0.00    +0.000 HD
BRANCH  20  23
ATOM     23  C   UNL     1      -2.499   9.781 -10.519  0.00  0.00    +0.000 C 
ATOM     24  H   UNL     1      -3.092  10.683 -10.710  0.00  0.00    +0.000 HD
ATOM     25  H   UNL     1      -2.899   8.995 -11.173  0.00  0.00    +0.000 HD
BRANCH  23  26
ATOM     26  C   UNL     1      -1.035  10.040 -10.859  0.00  0.00    +0.000 C 
ATOM     27  H   UNL     1      -0.401   9.805  -9.998  0.00  0.00    +0.000 HD
ATOM     28  H   UNL     1      -0.898  11.093 -11.133  0.00  0.00    +0.000 HD
BRANCH  26  30
ATOM     29  O   UNL     1      -0.509   7.962 -11.967  0.00  0.00    +0.000 OA
ATOM     30  C   UNL     1      -0.599   9.182 -12.018  0.00  0.00    +0.000 C 
BRANCH  30  31
ATOM     31  O   UNL     1      -0.349   9.965 -13.107  0.00  0.00    +0.000 OA
BRANCH  31  32
ATOM     32  C   UNL     1       0.396   9.339 -14.157  0.00  0.00    +0.000 C 
ATOM     33  H   UNL     1       0.665  10.076 -14.920  0.00  0.00    +0.000 HD
ATOM     34  H   UNL     1      -0.182   8.520 -14.596  0.00  0.00    +0.000 HD
ATOM     35  H   UNL     1       1.313   8.931 -13.725  0.00  0.00    +0.000 HD
ENDBRANCH  31  32
ENDBRANCH  30  31
ENDBRANCH  26  30
ENDBRANCH  23  26
ENDBRANCH  20  23
ENDBRANCH   1  20
TORSDOF 11
ENDMDL
MODEL 2
REMARK VINA RESULT:    -4.690      2.063      2.953
REMARK INTER + INTRA:          -7.880
REMARK INTER:                  -7.011
REMARK INTRA:                  -0.869
REMARK UNBOUND:                -0.448
REMARK  Name = 8050
REMARK  11 active torsions:
REMARK  status: ('A' for Active; 'I' for Inactive)
REMARK    1  A    between atoms: O_1  and  C_12
REMARK    2  A    between atoms: O_1  and  C_13
REMARK    3  A    between atoms: C_3  and  C_4
REMARK    4  A    between atoms: C_3  and  C_5
REMARK    5  A    between atoms: C_4  and  C_6
REMARK    6  A    between atoms: C_5  and  C_7
REMARK    7  A    between atoms: C_6  and  C_8
REMARK    8  A    between atoms: C_7  and  C_9
REMARK    9  A    between atoms: C_8  and  C_10
REMARK   10  A    between atoms: C_9  and  C_11
REMARK   11  A    between atoms: C_10  and  C_12
REMARK                            x       y       z     vdW  Elec       q    Type
REMARK                         _______ _______ _______ _____ _____    ______ ____
ROOT
ATOM      1  C   UNL     1      -2.810   9.650  -9.502  0.00  0.00    +0.000 C 
ATOM      2  H   UNL     1      -3.423   9.446 -10.388  0.00  0.00    +0.000 HD
ATOM      3  H   UNL     1      -3.127  10.623  -9.107  0.00  0.00    +0.000 HD
ENDROOT
BRANCH   1   4
ATOM      4  C   UNL     1      -3.055   8.567  -8.448  0.00  0.00    +0.000 C 
ATOM      5  H   UNL     1      -2.232   8.561  -7.724  0.00  0.00    +0.000 HD
ATOM      6  H   UNL     1      -3.974   8.793  -7.894  0.00  0.00    +0.000 HD
BRANCH   4   7
ATOM      7  C   UNL     1      -3.178   7.185  -9.094  0.00  0.00    +0.000 C 
ATOM      8  H   UNL     1      -3.746   6.524  -8.428  0.00  0.00    +0.000 HD
ATOM      9  H   UNL     1      -2.179   6.745  -9.200  0.00  0.00    +0.000 HD
BRANCH   7  10
ATOM     10  C   UNL     1      -3.856   7.213 -10.467  0.00  0.00    +0.000 C 
ATOM     11  H   UNL     1      -4.176   8.238 -10.689  0.00  0.00    +0.000 HD
ATOM     12  H   UNL     1      -4.764   6.599 -10.426  0.00  0.00    +0.000 HD
BRANCH  10  13
ATOM     13  C   UNL     1      -2.956   6.713 -11.598  0.00  0.00    +0.000 C 
ATOM     14  H   UNL     1      -1.959   7.155 -11.503  0.00  0.00    +0.000 HD
ATOM     15  H   UNL     1      -2.839   5.625 -11.525  0.00  0.00    +0.000 HD
BRANCH  13  16
ATOM     16  C   UNL     1      -3.536   7.060 -12.961  0.00  0.00    +0.000 C 
ATOM     17  H   UNL     1      -3.630   8.144 -13.084  0.00  0.00    +0.000 HD
ATOM     18  H   UNL     1      -4.530   6.618 -13.073  0.00  0.00    +0.000 HD
ATOM     19  H   UNL     1      -2.900   6.676 -13.766  0.00  0.00    +0.000 HD
ENDBRANCH  13  16
ENDBRANCH  10  13
ENDBRANCH   7  10
ENDBRANCH   4   7
ENDBRANCH   1   4
BRANCH   1  20
ATOM     20  C   UNL     1      -1.335   9.716  -9.898  0.00  0.00    +0.000 C 
ATOM     21  H   UNL     1      -0.797  10.380  -9.212  0.00  0.00    +0.000 HD
ATOM     22  H   UNL     1      -0.886   8.720  -9.803  0.00  0.00    +0.000 HD
BRANCH  20  23
ATOM     23  C   UNL     1      -1.167  10.221 -11.332  0.00  0.00    +0.000 C 
ATOM     24  H   UNL     1      -0.653  11.190 -11.323  0.00  0.00    +0.000 HD
ATOM     25  H   UNL     1      -2.156  10.392 -11.776  0.00  0.00    +0.000 HD
BRANCH  23  26
ATOM     26  C   UNL     1      -0.385   9.226 -12.183  0.00  0.00    +0.000 C 
ATOM     27  H   UNL     1      -0.646   8.201 -11.899  0.00  0.00    +0.000 HD
ATOM     28  H   UNL     1       0.691   9.379 -12.039  0.00  0.00    +0.000 HD
BRANCH  26  30
ATOM     29  O   UNL     1      -1.602  10.132 -14.060  0.00  0.00    +0.000 OA
ATOM     30  C   UNL     1      -0.705   9.409 -13.644  0.00  0.00    +0.000 C 
BRANCH  30  31
ATOM     31  O   UNL     1       0.158   8.675 -14.404  0.00  0.00    +0.000 OA
BRANCH  31  32
ATOM     32  C   UNL     1       0.766   9.375 -15.494  0.00  0.00    +0.000 C 
ATOM     33  H   UNL     1       0.842   8.721 -16.368  0.00  0.00    +0.000 HD
ATOM     34  H   UNL     1       1.753   9.747 -15.202  0.00  0.00    +0.000 HD
ATOM     35  H   UNL     1       0.130  10.227 -15.747  0.00  0.00    +0.000 HD
ENDBRANCH  31  32
ENDBRANCH  30  31
ENDBRANCH  26  30
ENDBRANCH  23  26
ENDBRANCH  20  23
ENDBRANCH   1  20
TORSDOF 11
ENDMDL
MODEL 3
REMARK VINA RESULT:    -4.518     17.375     19.899
REMARK INTER + INTRA:          -7.607
REMARK INTER:                  -6.696
REMARK INTRA:                  -0.910
REMARK UNBOUND:                -0.448
REMARK  Name = 8050
REMARK  11 active torsions:
REMARK  status: ('A' for Active; 'I' for Inactive)
REMARK    1  A    between atoms: O_1  and  C_12
REMARK    2  A    between atoms: O_1  and  C_13
REMARK    3  A    between atoms: C_3  and  C_4
REMARK    4  A    between atoms: C_3  and  C_5
REMARK    5  A    between atoms: C_4  and  C_6
REMARK    6  A    between atoms: C_5  and  C_7
REMARK    7  A    between atoms: C_6  and  C_8
REMARK    8  A    between atoms: C_7  and  C_9
REMARK    9  A    between atoms: C_8  and  C_10
REMARK   10  A    between atoms: C_9  and  C_11
REMARK   11  A    between atoms: C_10  and  C_12
REMARK                            x       y       z     vdW  Elec       q    Type
REMARK                         _______ _______ _______ _____ _____    ______ ____
ROOT
ATOM      1  C   UNL     1      -8.629  11.294   5.312  0.00  0.00    +0.000 C 
ATOM      2  H   UNL     1      -9.212  12.186   5.574  0.00  0.00    +0.000 HD
ATOM      3  H   UNL     1      -9.197  10.750   4.547  0.00  0.00    +0.000 HD
ENDROOT
BRANCH   1   4
ATOM      4  C   UNL     1      -7.274  11.717   4.739  0.00  0.00    +0.000 C 
ATOM      5  H   UNL     1      -6.466  11.274   5.333  0.00  0.00    +0.000 HD
ATOM      6  H   UNL     1      -7.172  11.336   3.716  0.00  0.00    +0.000 HD
BRANCH   4   7
ATOM      7  C   UNL     1      -7.128  13.241   4.731  0.00  0.00    +0.000 C 
ATOM      8  H   UNL     1      -8.095  13.698   4.971  0.00  0.00    +0.000 HD
ATOM      9  H   UNL     1      -6.862  13.573   3.720  0.00  0.00    +0.000 HD
BRANCH   7  10
ATOM     10  C   UNL     1      -6.073  13.755   5.714  0.00  0.00    +0.000 C 
ATOM     11  H   UNL     1      -5.531  14.592   5.257  0.00  0.00    +0.000 HD
ATOM     12  H   UNL     1      -5.337  12.962   5.892  0.00  0.00    +0.000 HD
BRANCH  10  13
ATOM     13  C   UNL     1      -6.660  14.210   7.052  0.00  0.00    +0.000 C 
ATOM     14  H   UNL     1      -6.650  15.304   7.109  0.00  0.00    +0.000 HD
ATOM     15  H   UNL     1      -7.706  13.889   7.126  0.00  0.00    +0.000 HD
BRANCH  13  16
ATOM     16  C   UNL     1      -5.879  13.635   8.223  0.00  0.00    +0.000 C 
ATOM     17  H   UNL     1      -5.378  14.428   8.789  0.00  0.00    +0.000 HD
ATOM     18  H   UNL     1      -5.115  12.939   7.864  0.00  0.00    +0.000 HD
ATOM     19  H   UNL     1      -6.540  13.092   8.906  0.00  0.00    +0.000 HD
ENDBRANCH  13  16
ENDBRANCH  10  13
ENDBRANCH   7  10
ENDBRANCH   4   7
ENDBRANCH   1   4
BRANCH   1  20
ATOM     20  C   UNL     1      -8.459  10.409   6.547  0.00  0.00    +0.000 C 
ATOM     21  H   UNL     1      -9.153   9.562   6.493  0.00  0.00    +0.000 HD
ATOM     22  H   UNL     1      -7.443   9.994   6.562  0.00  0.00    +0.000 HD
BRANCH  20  23
ATOM     23  C   UNL     1      -8.712  11.195   7.834  0.00  0.00    +0.000 C 
ATOM     24  H   UNL     1      -9.785  11.195   8.060  0.00  0.00    +0.000 HD
ATOM     25  H   UNL     1      -8.420  12.242   7.684  0.00  0.00    +0.000 HD
BRANCH  23  26
ATOM     26  C   UNL     1      -7.934  10.606   9.006  0.00  0.00    +0.000 C 
ATOM     27  H   UNL     1      -8.100  11.205   9.908  0.00  0.00    +0.000 HD
ATOM     28  H   UNL     1      -6.864  10.593   8.772  0.00  0.00    +0.000 HD
BRANCH  26  30
ATOM     29  O   UNL     1      -7.674   8.209   9.118  0.00  0.00    +0.000 OA
ATOM     30  C   UNL     1      -8.382   9.194   9.285  0.00  0.00    +0.000 C 
BRANCH  30  31
ATOM     31  O   UNL     1      -9.660   9.197   9.762  0.00  0.00    +0.000 OA
BRANCH  31  32
ATOM     32  C   UNL     1      -9.787   9.076  11.182  0.00  0.00    +0.000 C 
ATOM     33  H   UNL     1     -10.472   8.260  11.433  0.00  0.00    +0.000 HD
ATOM     34  H   UNL     1     -10.134  10.020  11.614  0.00  0.00    +0.000 HD
ATOM     35  H   UNL     1      -8.800   8.844  11.593  0.00  0.00    +0.000 HD
ENDBRANCH  31  32
ENDBRANCH  30  31
ENDBRANCH  26  30
ENDBRANCH  23  26
ENDBRANCH  20  23
ENDBRANCH   1  20
TORSDOF 11
ENDMDL
MODEL 4
REMARK VINA RESULT:    -4.500     14.124     15.371
REMARK INTER + INTRA:          -7.578
REMARK INTER:                  -7.046
REMARK INTRA:                  -0.532
REMARK UNBOUND:                -0.448
REMARK  Name = 8050
REMARK  11 active torsions:
REMARK  status: ('A' for Active; 'I' for Inactive)
REMARK    1  A    between atoms: O_1  and  C_12
REMARK    2  A    between atoms: O_1  and  C_13
REMARK    3  A    between atoms: C_3  and  C_4
REMARK    4  A    between atoms: C_3  and  C_5
REMARK    5  A    between atoms: C_4  and  C_6
REMARK    6  A    between atoms: C_5  and  C_7
REMARK    7  A    between atoms: C_6  and  C_8
REMARK    8  A    between atoms: C_7  and  C_9
REMARK    9  A    between atoms: C_8  and  C_10
REMARK   10  A    between atoms: C_9  and  C_11
REMARK   11  A    between atoms: C_10  and  C_12
REMARK                            x       y       z     vdW  Elec       q    Type
REMARK                         _______ _______ _______ _____ _____    ______ ____
ROOT
ATOM      1  C   UNL     1       8.411   9.732   1.107  0.00  0.00    +0.000 C 
ATOM      2  H   UNL     1       8.150  10.508   1.838  0.00  0.00    +0.000 HD
ATOM      3  H   UNL     1       9.427   9.394   1.344  0.00  0.00    +0.000 HD
ENDROOT
BRANCH   1   4
ATOM      4  C   UNL     1       7.438   8.557   1.238  0.00  0.00    +0.000 C 
ATOM      5  H   UNL     1       6.600   8.691   0.544  0.00  0.00    +0.000 HD
ATOM      6  H   UNL     1       7.946   7.626   0.957  0.00  0.00    +0.000 HD
BRANCH   4   7
ATOM      7  C   UNL     1       6.905   8.435   2.667  0.00  0.00    +0.000 C 
ATOM      8  H   UNL     1       6.686   9.436   3.058  0.00  0.00    +0.000 HD
ATOM      9  H   UNL     1       7.686   8.008   3.308  0.00  0.00    +0.000 HD
BRANCH   7  10
ATOM     10  C   UNL     1       5.647   7.570   2.775  0.00  0.00    +0.000 C 
ATOM     11  H   UNL     1       5.759   6.688   2.132  0.00  0.00    +0.000 HD
ATOM     12  H   UNL     1       4.792   8.137   2.388  0.00  0.00    +0.000 HD
BRANCH  10  13
ATOM     13  C   UNL     1       5.346   7.112   4.203  0.00  0.00    +0.000 C 
ATOM     14  H   UNL     1       4.710   7.850   4.704  0.00  0.00    +0.000 HD
ATOM     15  H   UNL     1       4.791   6.166   4.180  0.00  0.00    +0.000 HD
BRANCH  13  16
ATOM     16  C   UNL     1       6.624   6.919   5.005  0.00  0.00    +0.000 C 
ATOM     17  H   UNL     1       6.507   6.121   5.745  0.00  0.00    +0.000 HD
ATOM     18  H   UNL     1       6.880   7.840   5.536  0.00  0.00    +0.000 HD
ATOM     19  H   UNL     1       7.461   6.660   4.349  0.00  0.00    +0.000 HD
ENDBRANCH  13  16
ENDBRANCH  10  13
ENDBRANCH   7  10
ENDBRANCH   4   7
ENDBRANCH   1   4
BRANCH   1  20
ATOM     20  C   UNL     1       8.384  10.322  -0.303  0.00  0.00    +0.000 C 
ATOM     21  H   UNL     1       8.513  11.409  -0.252  0.00  0.00    +0.000 HD
ATOM     22  H   UNL     1       9.226   9.924  -0.882  0.00  0.00    +0.000 HD
BRANCH  20  23
ATOM     23  C   UNL     1       7.070   9.999  -1.016  0.00  0.00    +0.000 C 
ATOM     24  H   UNL     1       6.510   9.256  -0.437  0.00  0.00    +0.000 HD
ATOM     25  H   UNL     1       7.288   9.541  -1.990  0.00  0.00    +0.000 HD
BRANCH  23  26
ATOM     26  C   UNL     1       6.223  11.251  -1.213  0.00  0.00    +0.000 C 
ATOM     27  H   UNL     1       5.532  11.111  -2.051  0.00  0.00    +0.000 HD
ATOM     28  H   UNL     1       6.872  12.110  -1.419  0.00  0.00    +0.000 HD
BRANCH  26  30
ATOM     29  O   UNL     1       5.248  12.672   0.476  0.00  0.00    +0.000 OA
ATOM     30  C   UNL     1       5.415  11.547   0.025  0.00  0.00    +0.000 C 
BRANCH  30  31
ATOM     31  O   UNL     1       4.900  10.389   0.530  0.00  0.00    +0.000 OA
BRANCH  31  32
ATOM     32  C   UNL     1       3.565  10.079   0.118  0.00  0.00    +0.000 C 
ATOM     33  H   UNL     1       3.410  10.381  -0.922  0.00  0.00    +0.000 HD
ATOM     34  H   UNL     1       2.842  10.570   0.776  0.00  0.00    +0.000 HD
ATOM     35  H   UNL     1       3.430   8.997   0.193  0.00  0.00    +0.000 HD
ENDBRANCH  31  32
ENDBRANCH  30  31
ENDBRANCH  26  30
ENDBRANCH  23  26
ENDBRANCH  20  23
ENDBRANCH   1  20
TORSDOF 11
ENDMDL
MODEL 5
REMARK VINA RESULT:    -4.472      2.837      4.533
REMARK INTER + INTRA:          -7.535
REMARK INTER:                  -7.074
REMARK INTRA:                  -0.461
REMARK UNBOUND:                -0.448
REMARK  Name = 8050
REMARK  11 active torsions:
REMARK  status: ('A' for Active; 'I' for Inactive)
REMARK    1  A    between atoms: O_1  and  C_12
REMARK    2  A    between atoms: O_1  and  C_13
REMARK    3  A    between atoms: C_3  and  C_4
REMARK    4  A    between atoms: C_3  and  C_5
REMARK    5  A    between atoms: C_4  and  C_6
REMARK    6  A    between atoms: C_5  and  C_7
REMARK    7  A    between atoms: C_6  and  C_8
REMARK    8  A    between atoms: C_7  and  C_9
REMARK    9  A    between atoms: C_8  and  C_10
REMARK   10  A    between atoms: C_9  and  C_11
REMARK   11  A    between atoms: C_10  and  C_12
REMARK                            x       y       z     vdW  Elec       q    Type
REMARK                         _______ _______ _______ _____ _____    ______ ____
ROOT
ATOM      1  C   UNL     1      -0.934  10.192 -12.468  0.00  0.00    +0.000 C 
ATOM      2  H   UNL     1      -1.947  10.243 -12.883  0.00  0.00    +0.000 HD
ATOM      3  H   UNL     1      -0.406  11.098 -12.791  0.00  0.00    +0.000 HD
ENDROOT
BRANCH   1   4
ATOM      4  C   UNL     1      -1.007  10.162 -10.939  0.00  0.00    +0.000 C 
ATOM      5  H   UNL     1      -0.299   9.421 -10.548  0.00  0.00    +0.000 HD
ATOM      6  H   UNL     1      -0.709  11.138 -10.537  0.00  0.00    +0.000 HD
BRANCH   4   7
ATOM      7  C   UNL     1      -2.420   9.824 -10.459  0.00  0.00    +0.000 C 
ATOM      8  H   UNL     1      -2.881   9.118 -11.160  0.00  0.00    +0.000 HD
ATOM      9  H   UNL     1      -3.034  10.733 -10.475  0.00  0.00    +0.000 HD
BRANCH   7  10
ATOM     10  C   UNL     1      -2.457   9.226  -9.050  0.00  0.00    +0.000 C 
ATOM     11  H   UNL     1      -2.951   9.932  -8.371  0.00  0.00    +0.000 HD
ATOM     12  H   UNL     1      -1.428   9.107  -8.689  0.00  0.00    +0.000 HD
BRANCH  10  13
ATOM     13  C   UNL     1      -3.177   7.878  -8.981  0.00  0.00    +0.000 C 
ATOM     14  H   UNL     1      -2.900   7.356  -8.058  0.00  0.00    +0.000 HD
ATOM     15  H   UNL     1      -4.261   8.038  -8.952  0.00  0.00    +0.000 HD
BRANCH  13  16
ATOM     16  C   UNL     1      -2.834   7.005 -10.178  0.00  0.00    +0.000 C 
ATOM     17  H   UNL     1      -2.678   7.611 -11.076  0.00  0.00    +0.000 HD
ATOM     18  H   UNL     1      -3.648   6.302 -10.380  0.00  0.00    +0.000 HD
ATOM     19  H   UNL     1      -1.924   6.425  -9.992  0.00  0.00    +0.000 HD
ENDBRANCH  13  16
ENDBRANCH  10  13
ENDBRANCH   7  10
ENDBRANCH   4   7
ENDBRANCH   1   4
BRANCH   1  20
ATOM     20  C   UNL     1      -0.213   8.959 -13.014  0.00  0.00    +0.000 C 
ATOM     21  H   UNL     1       0.523   8.607 -12.282  0.00  0.00    +0.000 HD
ATOM     22  H   UNL     1      -0.937   8.148 -13.160  0.00  0.00    +0.000 HD
BRANCH  20  23
ATOM     23  C   UNL     1       0.490   9.267 -14.337  0.00  0.00    +0.000 C 
ATOM     24  H   UNL     1       0.017   8.698 -15.146  0.00  0.00    +0.000 HD
ATOM     25  H   UNL     1       1.533   8.929 -14.281  0.00  0.00    +0.000 HD
BRANCH  23  26
ATOM     26  C   UNL     1       0.446  10.757 -14.655  0.00  0.00    +0.000 C 
ATOM     27  H   UNL     1       0.791  11.337 -13.792  0.00  0.00    +0.000 HD
ATOM     28  H   UNL     1      -0.579  11.054 -14.904  0.00  0.00    +0.000 HD
BRANCH  26  30
ATOM     29  O   UNL     1       1.315  10.465 -16.887  0.00  0.00    +0.000 OA
ATOM     30  C   UNL     1       1.337  11.078 -15.827  0.00  0.00    +0.000 C 
BRANCH  30  31
ATOM     31  O   UNL     1       2.132  12.145 -15.528  0.00  0.00    +0.000 OA
BRANCH  31  32
ATOM     32  C   UNL     1       1.612  13.042 -14.543  0.00  0.00    +0.000 C 
ATOM     33  H   UNL     1       0.595  13.347 -14.807  0.00  0.00    +0.000 HD
ATOM     34  H   UNL     1       2.264  13.916 -14.443  0.00  0.00    +0.000 HD
ATOM     35  H   UNL     1       1.582  12.515 -13.586  0.00  0.00    +0.000 HD
ENDBRANCH  31  32
ENDBRANCH  30  31
ENDBRANCH  26  30
ENDBRANCH  23  26
ENDBRANCH  20  23
ENDBRANCH   1  20
TORSDOF 11
ENDMDL
MODEL 6
REMARK VINA RESULT:    -4.403     24.198     26.653
REMARK INTER + INTRA:          -7.425
REMARK INTER:                  -6.766
REMARK INTRA:                  -0.659
REMARK UNBOUND:                -0.448
REMARK  Name = 8050
REMARK  11 active torsions:
REMARK  status: ('A' for Active; 'I' for Inactive)
REMARK    1  A    between atoms: O_1  and  C_12
REMARK    2  A    between atoms: O_1  and  C_13
REMARK    3  A    between atoms: C_3  and  C_4
REMARK    4  A    between atoms: C_3  and  C_5
REMARK    5  A    between atoms: C_4  and  C_6
REMARK    6  A    between atoms: C_5  and  C_7
REMARK    7  A    between atoms: C_6  and  C_8
REMARK    8  A    between atoms: C_7  and  C_9
REMARK    9  A    between atoms: C_8  and  C_10
REMARK   10  A    between atoms: C_9  and  C_11
REMARK   11  A    between atoms: C_10  and  C_12
REMARK                            x       y       z     vdW  Elec       q    Type
REMARK                         _______ _______ _______ _____ _____    ______ ____
ROOT
ATOM      1  C   UNL     1     -20.422  -3.646   5.249  0.00  0.00    +0.000 C 
ATOM      2  H   UNL     1     -21.086  -3.921   6.078  0.00  0.00    +0.000 HD
ATOM      3  H   UNL     1     -19.434  -3.443   5.680  0.00  0.00    +0.000 HD
ENDROOT
BRANCH   1   4
ATOM      4  C   UNL     1     -20.320  -4.815   4.266  0.00  0.00    +0.000 C 
ATOM      5  H   UNL     1     -20.606  -5.747   4.767  0.00  0.00    +0.000 HD
ATOM      6  H   UNL     1     -21.023  -4.663   3.438  0.00  0.00    +0.000 HD
BRANCH   4   7
ATOM      7  C   UNL     1     -18.901  -4.948   3.709  0.00  0.00    +0.000 C 
ATOM      8  H   UNL     1     -18.312  -5.595   4.370  0.00  0.00    +0.000 HD
ATOM      9  H   UNL     1     -18.416  -3.963   3.716  0.00  0.00    +0.000 HD
BRANCH   7  10
ATOM     10  C   UNL     1     -18.855  -5.512   2.287  0.00  0.00    +0.000 C 
ATOM     11  H   UNL     1     -19.026  -6.595   2.323  0.00  0.00    +0.000 HD
ATOM     12  H   UNL     1     -17.848  -5.364   1.879  0.00  0.00    +0.000 HD
BRANCH  10  13
ATOM     13  C   UNL     1     -19.880  -4.875   1.347  0.00  0.00    +0.000 C 
ATOM     14  H   UNL     1     -20.131  -5.574   0.542  0.00  0.00    +0.000 HD
ATOM     15  H   UNL     1     -20.806  -4.664   1.896  0.00  0.00    +0.000 HD
BRANCH  13  16
ATOM     16  C   UNL     1     -19.353  -3.580   0.748  0.00  0.00    +0.000 C 
ATOM     17  H   UNL     1     -18.371  -3.327   1.160  0.00  0.00    +0.000 HD
ATOM     18  H   UNL     1     -20.037  -2.755   0.967  0.00  0.00    +0.000 HD
ATOM     19  H   UNL     1     -19.258  -3.663  -0.340  0.00  0.00    +0.000 HD
ENDBRANCH  13  16
ENDBRANCH  10  13
ENDBRANCH   7  10
ENDBRANCH   4   7
ENDBRANCH   1   4
BRANCH   1  20
ATOM     20  C   UNL     1     -20.949  -2.386   4.562  0.00  0.00    +0.000 C 
ATOM     21  H   UNL     1     -20.410  -2.226   3.621  0.00  0.00    +0.000 HD
ATOM     22  H   UNL     1     -22.008  -2.523   4.309  0.00  0.00    +0.000 HD
BRANCH  20  23
ATOM     23  C   UNL     1     -20.789  -1.156   5.457  0.00  0.00    +0.000 C 
ATOM     24  H   UNL     1     -21.759  -0.659   5.577  0.00  0.00    +0.000 HD
ATOM     25  H   UNL     1     -20.122  -0.435   4.967  0.00  0.00    +0.000 HD
BRANCH  23  26
ATOM     26  C   UNL     1     -20.225  -1.534   6.822  0.00  0.00    +0.000 C 
ATOM     27  H   UNL     1     -19.331  -0.940   7.039  0.00  0.00    +0.000 HD
ATOM     28  H   UNL     1     -19.965  -2.599   6.835  0.00  0.00    +0.000 HD
BRANCH  26  30
ATOM     29  O   UNL     1     -21.489  -0.164   8.355  0.00  0.00    +0.000 OA
ATOM     30  C   UNL     1     -21.240  -1.276   7.906  0.00  0.00    +0.000 C 
BRANCH  30  31
ATOM     31  O   UNL     1     -21.832  -2.447   8.277  0.00  0.00    +0.000 OA
BRANCH  31  32
ATOM     32  C   UNL     1     -23.250  -2.506   8.090  0.00  0.00    +0.000 C 
ATOM     33  H   UNL     1     -23.517  -2.125   7.100  0.00  0.00    +0.000 HD
ATOM     34  H   UNL     1     -23.760  -1.937   8.874  0.00  0.00    +0.000 HD
ATOM     35  H   UNL     1     -23.558  -3.553   8.159  0.00  0.00    +0.000 HD
ENDBRANCH  31  32
ENDBRANCH  30  31
ENDBRANCH  26  30
ENDBRANCH  23  26
ENDBRANCH  20  23
ENDBRANCH   1  20
TORSDOF 11
ENDMDL
MODEL 7
REMARK VINA RESULT:    -4.396      1.371      2.159
REMARK INTER + INTRA:          -7.414
REMARK INTER:                  -7.097
REMARK INTRA:                  -0.317
REMARK UNBOUND:                -0.448
REMARK  Name = 8050
REMARK  11 active torsions:
REMARK  status: ('A' for Active; 'I' for Inactive)
REMARK    1  A    between atoms: O_1  and  C_12
REMARK    2  A    between atoms: O_1  and  C_13
REMARK    3  A    between atoms: C_3  and  C_4
REMARK    4  A    between atoms: C_3  and  C_5
REMARK    5  A    between atoms: C_4  and  C_6
REMARK    6  A    between atoms: C_5  and  C_7
REMARK    7  A    between atoms: C_6  and  C_8
REMARK    8  A    between atoms: C_7  and  C_9
REMARK    9  A    between atoms: C_8  and  C_10
REMARK   10  A    between atoms: C_9  and  C_11
REMARK   11  A    between atoms: C_10  and  C_12
REMARK                            x       y       z     vdW  Elec       q    Type
REMARK                         _______ _______ _______ _____ _____    ______ ____
ROOT
ATOM      1  C   UNL     1      -2.682   9.799 -10.132  0.00  0.00    +0.000 C 
ATOM      2  H   UNL     1      -3.245   9.472 -11.015  0.00  0.00    +0.000 HD
ATOM      3  H   UNL     1      -3.150  10.724  -9.774  0.00  0.00    +0.000 HD
ENDROOT
BRANCH   1   4
ATOM      4  C   UNL     1      -2.771   8.727  -9.042  0.00  0.00    +0.000 C 
ATOM      5  H   UNL     1      -1.837   8.704  -8.468  0.00  0.00    +0.000 HD
ATOM      6  H   UNL     1      -3.576   8.980  -8.342  0.00  0.00    +0.000 HD
BRANCH   4   7
ATOM      7  C   UNL     1      -3.036   7.345  -9.645  0.00  0.00    +0.000 C 
ATOM      8  H   UNL     1      -2.088   6.801  -9.732  0.00  0.00    +0.000 HD
ATOM      9  H   UNL     1      -3.428   7.464 -10.662  0.00  0.00    +0.000 HD
BRANCH   7  10
ATOM     10  C   UNL     1      -4.022   6.505  -8.829  0.00  0.00    +0.000 C 
ATOM     11  H   UNL     1      -4.222   7.009  -7.875  0.00  0.00    +0.000 HD
ATOM     12  H   UNL     1      -3.553   5.544  -8.586  0.00  0.00    +0.000 HD
BRANCH  10  13
ATOM     13  C   UNL     1      -5.348   6.254  -9.549  0.00  0.00    +0.000 C 
ATOM     14  H   UNL     1      -5.747   7.199  -9.934  0.00  0.00    +0.000 HD
ATOM     15  H   UNL     1      -5.183   5.595 -10.410  0.00  0.00    +0.000 HD
BRANCH  13  16
ATOM     16  C   UNL     1      -6.370   5.614  -8.622  0.00  0.00    +0.000 C 
ATOM     17  H   UNL     1      -6.589   6.265  -7.769  0.00  0.00    +0.000 HD
ATOM     18  H   UNL     1      -5.988   4.665  -8.235  0.00  0.00    +0.000 HD
ATOM     19  H   UNL     1      -7.307   5.413  -9.151  0.00  0.00    +0.000 HD
ENDBRANCH  13  16
ENDBRANCH  10  13
ENDBRANCH   7  10
ENDBRANCH   4   7
ENDBRANCH   1   4
BRANCH   1  20
ATOM     20  C   UNL     1      -1.230  10.078 -10.521  0.00  0.00    +0.000 C 
ATOM     21  H   UNL     1      -1.058  11.159 -10.553  0.00  0.00    +0.000 HD
ATOM     22  H   UNL     1      -0.561   9.666  -9.755  0.00  0.00    +0.000 HD
BRANCH  20  23
ATOM     23  C   UNL     1      -0.892   9.467 -11.882  0.00  0.00    +0.000 C 
ATOM     24  H   UNL     1      -1.680   8.764 -12.176  0.00  0.00    +0.000 HD
ATOM     25  H   UNL     1       0.036   8.887 -11.799  0.00  0.00    +0.000 HD
BRANCH  23  26
ATOM     26  C   UNL     1      -0.733  10.545 -12.948  0.00  0.00    +0.000 C 
ATOM     27  H   UNL     1      -0.182  11.400 -12.542  0.00  0.00    +0.000 HD
ATOM     28  H   UNL     1      -1.719  10.879 -13.289  0.00  0.00    +0.000 HD
BRANCH  26  30
ATOM     29  O   UNL     1       0.281   8.825 -14.304  0.00  0.00    +0.000 OA
ATOM     30  C   UNL     1       0.029  10.011 -14.134  0.00  0.00    +0.000 C 
BRANCH  30  31
ATOM     31  O   UNL     1       0.362  11.036 -14.972  0.00  0.00    +0.000 OA
BRANCH  31  32
ATOM     32  C   UNL     1       0.373  12.337 -14.378  0.00  0.00    +0.000 C 
ATOM     33  H   UNL     1      -0.530  12.486 -13.776  0.00  0.00    +0.000 HD
ATOM     34  H   UNL     1       0.453  13.107 -15.151  0.00  0.00    +0.000 HD
ATOM     35  H   UNL     1       1.245  12.404 -13.723  0.00  0.00    +0.000 HD
ENDBRANCH  31  32
ENDBRANCH  30  31
ENDBRANCH  26  30
ENDBRANCH  23  26
ENDBRANCH  20  23
ENDBRANCH   1  20
TORSDOF 11
ENDMDL
MODEL 8
REMARK VINA RESULT:    -4.364     18.122     20.544
REMARK INTER + INTRA:          -7.362
REMARK INTER:                  -6.914
REMARK INTRA:                  -0.448
REMARK UNBOUND:                -0.448
REMARK  Name = 8050
REMARK  11 active torsions:
REMARK  status: ('A' for Active; 'I' for Inactive)
REMARK    1  A    between atoms: O_1  and  C_12
REMARK    2  A    between atoms: O_1  and  C_13
REMARK    3  A    between atoms: C_3  and  C_4
REMARK    4  A    between atoms: C_3  and  C_5
REMARK    5  A    between atoms: C_4  and  C_6
REMARK    6  A    between atoms: C_5  and  C_7
REMARK    7  A    between atoms: C_6  and  C_8
REMARK    8  A    between atoms: C_7  and  C_9
REMARK    9  A    between atoms: C_8  and  C_10
REMARK   10  A    between atoms: C_9  and  C_11
REMARK   11  A    between atoms: C_10  and  C_12
REMARK                            x       y       z     vdW  Elec       q    Type
REMARK                         _______ _______ _______ _____ _____    ______ ____
ROOT
ATOM      1  C   UNL     1      -6.062  13.337   8.888  0.00  0.00    +0.000 C 
ATOM      2  H   UNL     1      -5.024  13.479   8.564  0.00  0.00    +0.000 HD
ATOM      3  H   UNL     1      -6.329  14.204   9.504  0.00  0.00    +0.000 HD
ENDROOT
BRANCH   1   4
ATOM      4  C   UNL     1      -6.978  13.279   7.663  0.00  0.00    +0.000 C 
ATOM      5  H   UNL     1      -7.070  12.242   7.318  0.00  0.00    +0.000 HD
ATOM      6  H   UNL     1      -7.983  13.620   7.938  0.00  0.00    +0.000 HD
BRANCH   4   7
ATOM      7  C   UNL     1      -6.439  14.151   6.526  0.00  0.00    +0.000 C 
ATOM      8  H   UNL     1      -5.468  14.569   6.820  0.00  0.00    +0.000 HD
ATOM      9  H   UNL     1      -7.116  15.000   6.370  0.00  0.00    +0.000 HD
BRANCH   7  10
ATOM     10  C   UNL     1      -6.278  13.395   5.204  0.00  0.00    +0.000 C 
ATOM     11  H   UNL     1      -5.489  12.641   5.313  0.00  0.00    +0.000 HD
ATOM     12  H   UNL     1      -5.939  14.098   4.433  0.00  0.00    +0.000 HD
BRANCH  10  13
ATOM     13  C   UNL     1      -7.563  12.711   4.735  0.00  0.00    +0.000 C 
ATOM     14  H   UNL     1      -8.359  12.869   5.471  0.00  0.00    +0.000 HD
ATOM     15  H   UNL     1      -7.898  13.159   3.791  0.00  0.00    +0.000 HD
BRANCH  13  16
ATOM     16  C   UNL     1      -7.353  11.219   4.530  0.00  0.00    +0.000 C 
ATOM     17  H   UNL     1      -6.458  11.026   3.930  0.00  0.00    +0.000 HD
ATOM     18  H   UNL     1      -8.211  10.784   4.008  0.00  0.00    +0.000 HD
ATOM     19  H   UNL     1      -7.242  10.704   5.489  0.00  0.00    +0.000 HD
ENDBRANCH  13  16
ENDBRANCH  10  13
ENDBRANCH   7  10
ENDBRANCH   4   7
ENDBRANCH   1   4
BRANCH   1  20
ATOM     20  C   UNL     1      -6.171  12.062   9.725  0.00  0.00    +0.000 C 
ATOM     21  H   UNL     1      -5.245  11.482   9.636  0.00  0.00    +0.000 HD
ATOM     22  H   UNL     1      -6.286  12.328  10.783  0.00  0.00    +0.000 HD
BRANCH  20  23
ATOM     23  C   UNL     1      -7.355  11.204   9.278  0.00  0.00    +0.000 C 
ATOM     24  H   UNL     1      -7.357  11.119   8.185  0.00  0.00    +0.000 HD
ATOM     25  H   UNL     1      -8.292  11.703   9.558  0.00  0.00    +0.000 HD
BRANCH  23  26
ATOM     26  C   UNL     1      -7.302   9.816   9.906  0.00  0.00    +0.000 C 
ATOM     27  H   UNL     1      -6.894   9.876  10.921  0.00  0.00    +0.000 HD
ATOM     28  H   UNL     1      -6.669   9.157   9.300  0.00  0.00    +0.000 HD
BRANCH  26  30
ATOM     29  O   UNL     1      -9.667   9.695   9.440  0.00  0.00    +0.000 OA
ATOM     30  C   UNL     1      -8.682   9.214   9.986  0.00  0.00    +0.000 C 
BRANCH  30  31
ATOM     31  O   UNL     1      -8.647   8.068  10.725  0.00  0.00    +0.000 OA
BRANCH  31  32
ATOM     32  C   UNL     1      -9.805   7.820  11.529  0.00  0.00    +0.000 C 
ATOM     33  H   UNL     1      -9.584   7.063  12.287  0.00  0.00    +0.000 HD
ATOM     34  H   UNL     1     -10.643   7.503  10.899  0.00  0.00    +0.000 HD
ATOM     35  H   UNL     1     -10.075   8.752  12.032  0.00  0.00    +0.000 HD
ENDBRANCH  31  32
ENDBRANCH  30  31
ENDBRANCH  26  30
ENDBRANCH  23  26
ENDBRANCH  20  23
ENDBRANCH   1  20
TORSDOF 11
ENDMDL
MODEL 9
REMARK VINA RESULT:    -4.343      2.646      5.340
REMARK INTER + INTRA:          -7.330
REMARK INTER:                  -6.417
REMARK INTRA:                  -0.913
REMARK UNBOUND:                -0.448
REMARK  Name = 8050
REMARK  11 active torsions:
REMARK  status: ('A' for Active; 'I' for Inactive)
REMARK    1  A    between atoms: O_1  and  C_12
REMARK    2  A    between atoms: O_1  and  C_13
REMARK    3  A    between atoms: C_3  and  C_4
REMARK    4  A    between atoms: C_3  and  C_5
REMARK    5  A    between atoms: C_4  and  C_6
REMARK    6  A    between atoms: C_5  and  C_7
REMARK    7  A    between atoms: C_6  and  C_8
REMARK    8  A    between atoms: C_7  and  C_9
REMARK    9  A    between atoms: C_8  and  C_10
REMARK   10  A    between atoms: C_9  and  C_11
REMARK   11  A    between atoms: C_10  and  C_12
REMARK                            x       y       z     vdW  Elec       q    Type
REMARK                         _______ _______ _______ _____ _____    ______ ____
ROOT
ATOM      1  C   UNL     1      -2.681   9.536 -10.066  0.00  0.00    +0.000 C 
ATOM      2  H   UNL     1      -3.356  10.400 -10.067  0.00  0.00    +0.000 HD
ATOM      3  H   UNL     1      -2.987   8.885 -10.894  0.00  0.00    +0.000 HD
ENDROOT
BRANCH   1   4
ATOM      4  C   UNL     1      -1.242  10.008 -10.293  0.00  0.00    +0.000 C 
ATOM      5  H   UNL     1      -1.129  11.037  -9.933  0.00  0.00    +0.000 HD
ATOM      6  H   UNL     1      -0.553   9.384  -9.711  0.00  0.00    +0.000 HD
BRANCH   4   7
ATOM      7  C   UNL     1      -0.864   9.939 -11.774  0.00  0.00    +0.000 C 
ATOM      8  H   UNL     1      -0.052  10.649 -11.973  0.00  0.00    +0.000 HD
ATOM      9  H   UNL     1      -1.720  10.258 -12.381  0.00  0.00    +0.000 HD
BRANCH   7  10
ATOM     10  C   UNL     1      -0.429   8.542 -12.226  0.00  0.00    +0.000 C 
ATOM     11  H   UNL     1      -0.534   7.843 -11.387  0.00  0.00    +0.000 HD
ATOM     12  H   UNL     1       0.637   8.569 -12.484  0.00  0.00    +0.000 HD
BRANCH  10  13
ATOM     13  C   UNL     1      -1.225   8.015 -13.421  0.00  0.00    +0.000 C 
ATOM     14  H   UNL     1      -0.564   7.899 -14.286  0.00  0.00    +0.000 HD
ATOM     15  H   UNL     1      -1.633   7.024 -13.187  0.00  0.00    +0.000 HD
BRANCH  13  16
ATOM     16  C   UNL     1      -2.369   8.950 -13.781  0.00  0.00    +0.000 C 
ATOM     17  H   UNL     1      -2.684   8.806 -14.819  0.00  0.00    +0.000 HD
ATOM     18  H   UNL     1      -2.058   9.993 -13.662  0.00  0.00    +0.000 HD
ATOM     19  H   UNL     1      -3.234   8.778 -13.132  0.00  0.00    +0.000 HD
ENDBRANCH  13  16
ENDBRANCH  10  13
ENDBRANCH   7  10
ENDBRANCH   4   7
ENDBRANCH   1   4
BRANCH   1  20
ATOM     20  C   UNL     1      -2.815   8.778  -8.744  0.00  0.00    +0.000 C 
ATOM     21  H   UNL     1      -1.841   8.734  -8.243  0.00  0.00    +0.000 HD
ATOM     22  H   UNL     1      -3.497   9.322  -8.079  0.00  0.00    +0.000 HD
BRANCH  20  23
ATOM     23  C   UNL     1      -3.338   7.358  -8.968  0.00  0.00    +0.000 C 
ATOM     24  H   UNL     1      -4.358   7.275  -8.576  0.00  0.00    +0.000 HD
ATOM     25  H   UNL     1      -2.722   6.650  -8.399  0.00  0.00    +0.000 HD
BRANCH  23  26
ATOM     26  C   UNL     1      -3.318   6.987 -10.447  0.00  0.00    +0.000 C 
ATOM     27  H   UNL     1      -2.696   6.100 -10.605  0.00  0.00    +0.000 HD
ATOM     28  H   UNL     1      -2.916   7.820 -11.034  0.00  0.00    +0.000 HD
BRANCH  26  30
ATOM     29  O   UNL     1      -5.631   6.340 -10.206  0.00  0.00    +0.000 OA
ATOM     30  C   UNL     1      -4.711   6.682 -10.937  0.00  0.00    +0.000 C 
BRANCH  30  31
ATOM     31  O   UNL     1      -4.778   6.868 -12.287  0.00  0.00    +0.000 OA
BRANCH  31  32
ATOM     32  C   UNL     1      -5.857   7.690 -12.742  0.00  0.00    +0.000 C 
ATOM     33  H   UNL     1      -5.891   7.700 -13.836  0.00  0.00    +0.000 HD
ATOM     34  H   UNL     1      -5.751   8.706 -12.349  0.00  0.00    +0.000 HD
ATOM     35  H   UNL     1      -6.791   7.264 -12.366  0.00  0.00    +0.000 HD
ENDBRANCH  31  32
ENDBRANCH  30  31
ENDBRANCH  26  30
ENDBRANCH  23  26
ENDBRANCH  20  23
ENDBRANCH   1  20
TORSDOF 11
ENDMDL
MODEL 10
REMARK VINA RESULT:    -4.298     17.802     19.158
REMARK INTER + INTRA:          -7.259
REMARK INTER:                  -6.796
REMARK INTRA:                  -0.462
REMARK UNBOUND:                -0.448
REMARK  Name = 8050
REMARK  11 active torsions:
REMARK  status: ('A' for Active; 'I' for Inactive)
REMARK    1  A    between atoms: O_1  and  C_12
REMARK    2  A    between atoms: O_1  and  C_13
REMARK    3  A    between atoms: C_3  and  C_4
REMARK    4  A    between atoms: C_3  and  C_5
REMARK    5  A    between atoms: C_4  and  C_6
REMARK    6  A    between atoms: C_5  and  C_7
REMARK    7  A    between atoms: C_6  and  C_8
REMARK    8  A    between atoms: C_7  and  C_9
REMARK    9  A    between atoms: C_8  and  C_10
REMARK   10  A    between atoms: C_9  and  C_11
REMARK   11  A    between atoms: C_10  and  C_12
REMARK                            x       y       z     vdW  Elec       q    Type
REMARK                         _______ _______ _______ _____ _____    ______ ____
ROOT
ATOM      1  C   UNL     1       7.337   8.578   3.928  0.00  0.00    +0.000 C 
ATOM      2  H   UNL     1       8.015   7.922   3.369  0.00  0.00    +0.000 HD
ATOM      3  H   UNL     1       6.923   9.299   3.213  0.00  0.00    +0.000 HD
ENDROOT
BRANCH   1   4
ATOM      4  C   UNL     1       6.201   7.747   4.531  0.00  0.00    +0.000 C 
ATOM      5  H   UNL     1       6.456   6.682   4.486  0.00  0.00    +0.000 HD
ATOM      6  H   UNL     1       6.076   8.007   5.589  0.00  0.00    +0.000 HD
BRANCH   4   7
ATOM      7  C   UNL     1       4.884   7.990   3.789  0.00  0.00    +0.000 C 
ATOM      8  H   UNL     1       4.353   8.826   4.259  0.00  0.00    +0.000 HD
ATOM      9  H   UNL     1       4.242   7.107   3.895  0.00  0.00    +0.000 HD
BRANCH   7  10
ATOM     10  C   UNL     1       5.072   8.289   2.299  0.00  0.00    +0.000 C 
ATOM     11  H   UNL     1       4.958   7.360   1.727  0.00  0.00    +0.000 HD
ATOM     12  H   UNL     1       6.099   8.638   2.135  0.00  0.00    +0.000 HD
BRANCH  10  13
ATOM     13  C   UNL     1       4.091   9.332   1.761  0.00  0.00    +0.000 C 
ATOM     14  H   UNL     1       3.117   9.214   2.249  0.00  0.00    +0.000 HD
ATOM     15  H   UNL     1       4.454  10.340   1.998  0.00  0.00    +0.000 HD
BRANCH  13  16
ATOM     16  C   UNL     1       3.920   9.207   0.255  0.00  0.00    +0.000 C 
ATOM     17  H   UNL     1       3.428  10.092  -0.161  0.00  0.00    +0.000 HD
ATOM     18  H   UNL     1       3.307   8.333   0.015  0.00  0.00    +0.000 HD
ATOM     19  H   UNL     1       4.889   9.088  -0.240  0.00  0.00    +0.000 HD
ENDBRANCH  13  16
ENDBRANCH  10  13
ENDBRANCH   7  10
ENDBRANCH   4   7
ENDBRANCH   1   4
BRANCH   1  20
ATOM     20  C   UNL     1       8.117   9.323   5.012  0.00  0.00    +0.000 C 
ATOM     21  H   UNL     1       9.006   8.745   5.290  0.00  0.00    +0.000 HD
ATOM     22  H   UNL     1       8.466  10.284   4.615  0.00  0.00    +0.000 HD
BRANCH  20  23
ATOM     23  C   UNL     1       7.255   9.560   6.253  0.00  0.00    +0.000 C 
ATOM     24  H   UNL     1       6.720   8.639   6.512  0.00  0.00    +0.000 HD
ATOM     25  H   UNL     1       6.492  10.316   6.026  0.00  0.00    +0.000 HD
BRANCH  23  26
ATOM     26  C   UNL     1       8.101  10.020   7.435  0.00  0.00    +0.000 C 
ATOM     27  H   UNL     1       9.160   9.823   7.240  0.00  0.00    +0.000 HD
ATOM     28  H   UNL     1       7.794   9.485   8.341  0.00  0.00    +0.000 HD
BRANCH  26  30
ATOM     29  O   UNL     1       8.173  12.355   6.828  0.00  0.00    +0.000 OA
ATOM     30  C   UNL     1       7.929  11.499   7.669  0.00  0.00    +0.000 C 
BRANCH  30  31
ATOM     31  O   UNL     1       7.449  11.717   8.928  0.00  0.00    +0.000 OA
BRANCH  31  32
ATOM     32  C   UNL     1       8.215  11.135   9.987  0.00  0.00    +0.000 C 
ATOM     33  H   UNL     1       8.550  10.132   9.705  0.00  0.00    +0.000 HD
ATOM     34  H   UNL     1       7.624  11.100  10.908  0.00  0.00    +0.000 HD
ATOM     35  H   UNL     1       9.093  11.763  10.156  0.00  0.00    +0.000 HD
ENDBRANCH  31  32
ENDBRANCH  30  31
ENDBRANCH  26  30
ENDBRANCH  23  26
ENDBRANCH  20  23
ENDBRANCH   1  20
TORSDOF 11
ENDMDL
