MODEL 1
REMARK VINA RESULT:    -4.312      0.000      0.000
REMARK INTER + INTRA:          -6.839
REMARK INTER:                  -6.216
REMARK INTRA:                  -0.623
REMARK UNBOUND:                -0.637
REMARK  Name = 31289
REMARK  8 active torsions:
REMARK  status: ('A' for Active; 'I' for Inactive)
REMARK    1  A    between atoms: C_2  and  C_3
REMARK    2  A    between atoms: C_2  and  C_4
REMARK    3  A    between atoms: C_3  and  C_5
REMARK    4  A    between atoms: C_4  and  C_6
REMARK    5  A    between atoms: C_5  and  C_7
REMARK    6  A    between atoms: C_6  and  C_8
REMARK    7  A    between atoms: C_7  and  C_9
REMARK    8  A    between atoms: C_8  and  C_10
REMARK                            x       y       z     vdW  Elec       q    Type
REMARK                         _______ _______ _______ _____ _____    ______ ____
ROOT
ATOM      1  C   UNL     1       7.400   8.972   2.129  0.00  0.00    +0.000 C 
ATOM      2  H   UNL     1       8.019   8.277   2.710  0.00  0.00    +0.000 HD
ATOM      3  H   UNL     1       6.933   9.663   2.841  0.00  0.00    +0.000 HD
ENDROOT
BRANCH   1   4
ATOM      4  C   UNL     1       8.286   9.759   1.162  0.00  0.00    +0.000 C 
ATOM      5  H   UNL     1       8.032  10.824   1.224  0.00  0.00    +0.000 HD
ATOM      6  H   UNL     1       9.334   9.665   1.474  0.00  0.00    +0.000 HD
BRANCH   4   7
ATOM      7  C   UNL     1       8.160   9.298  -0.293  0.00  0.00    +0.000 C 
ATOM      8  H   UNL     1       9.026   8.675  -0.549  0.00  0.00    +0.000 HD
ATOM      9  H   UNL     1       7.272   8.660  -0.386  0.00  0.00    +0.000 HD
BRANCH   7  10
ATOM     10  C   UNL     1       8.060  10.453  -1.290  0.00  0.00    +0.000 C 
ATOM     11  H   UNL     1       8.901  11.141  -1.147  0.00  0.00    +0.000 HD
ATOM     12  H   UNL     1       8.125  10.067  -2.314  0.00  0.00    +0.000 HD
BRANCH  10  13
ATOM     13  C   UNL     1       6.756  11.219  -1.120  0.00  0.00    +0.000 C 
ATOM     14  H   UNL     1       6.417  11.632  -2.076  0.00  0.00    +0.000 HD
ATOM     15  H   UNL     1       5.974  10.555  -0.740  0.00  0.00    +0.000 HD
ATOM     16  H   UNL     1       6.875  12.044  -0.411  0.00  0.00    +0.000 HD
ENDBRANCH  10  13
ENDBRANCH   7  10
ENDBRANCH   4   7
ENDBRANCH   1   4
BRANCH   1  17
ATOM     17  C   UNL     1       6.316   8.194   1.379  0.00  0.00    +0.000 C 
ATOM     18  H   UNL     1       6.475   8.284   0.298  0.00  0.00    +0.000 HD
ATOM     19  H   UNL     1       6.387   7.129   1.630  0.00  0.00    +0.000 HD
BRANCH  17  20
ATOM     20  C   UNL     1       4.917   8.712   1.732  0.00  0.00    +0.000 C 
ATOM     21  H   UNL     1       4.381   7.953   2.314  0.00  0.00    +0.000 HD
ATOM     22  H   UNL     1       5.005   9.594   2.378  0.00  0.00    +0.000 HD
BRANCH  20  23
ATOM     23  C   UNL     1       4.099   9.069   0.494  0.00  0.00    +0.000 C 
ATOM     24  H   UNL     1       4.707   8.952  -0.410  0.00  0.00    +0.000 HD
ATOM     25  H   UNL     1       3.237   8.398   0.409  0.00  0.00    +0.000 HD
BRANCH  23  27
ATOM     26  O   UNL     1       3.379  11.161   1.501  0.00  0.00    +0.000 OA
ATOM     27  C   UNL     1       3.567  10.484   0.496  0.00  0.00    +0.000 C 
ATOM     28  H   UNL     1       3.357  10.901  -0.504  0.00  0.00    +0.000 HD
ENDBRANCH  23  27
ENDBRANCH  20  23
ENDBRANCH  17  20
ENDBRANCH   1  17
TORSDOF 8
ENDMDL
MODEL 2
REMARK VINA RESULT:    -4.243      2.353      3.848
REMARK INTER + INTRA:          -6.740
REMARK INTER:                  -6.218
REMARK INTRA:                  -0.522
REMARK UNBOUND:                -0.637
REMARK  Name = 31289
REMARK  8 active torsions:
REMARK  status: ('A' for Active; 'I' for Inactive)
REMARK    1  A    between atoms: C_2  and  C_3
REMARK    2  A    between atoms: C_2  and  C_4
REMARK    3  A    between atoms: C_3  and  C_5
REMARK    4  A    between atoms: C_4  and  C_6
REMARK    5  A    between atoms: C_5  and  C_7
REMARK    6  A    between atoms: C_6  and  C_8
REMARK    7  A    between atoms: C_7  and  C_9
REMARK    8  A    between atoms: C_8  and  C_10
REMARK                            x       y       z     vdW  Elec       q    Type
REMARK                         _______ _______ _______ _____ _____    ______ ____
ROOT
ATOM      1  C   UNL     1       5.471   8.608   0.468  0.00  0.00    +0.000 C 
ATOM      2  H   UNL     1       6.012   9.197  -0.282  0.00  0.00    +0.000 HD
ATOM      3  H   UNL     1       5.511   7.560   0.147  0.00  0.00    +0.000 HD
ENDROOT
BRANCH   1   4
ATOM      4  C   UNL     1       6.161   8.751   1.826  0.00  0.00    +0.000 C 
ATOM      5  H   UNL     1       7.184   9.116   1.676  0.00  0.00    +0.000 HD
ATOM      6  H   UNL     1       5.637   9.512   2.419  0.00  0.00    +0.000 HD
BRANCH   4   7
ATOM      7  C   UNL     1       6.208   7.446   2.626  0.00  0.00    +0.000 C 
ATOM      8  H   UNL     1       6.129   6.597   1.935  0.00  0.00    +0.000 HD
ATOM      9  H   UNL     1       7.187   7.366   3.115  0.00  0.00    +0.000 HD
BRANCH   7  10
ATOM     10  C   UNL     1       5.105   7.340   3.680  0.00  0.00    +0.000 C 
ATOM     11  H   UNL     1       4.147   7.121   3.195  0.00  0.00    +0.000 HD
ATOM     12  H   UNL     1       5.323   6.509   4.362  0.00  0.00    +0.000 HD
BRANCH  10  13
ATOM     13  C   UNL     1       4.977   8.629   4.479  0.00  0.00    +0.000 C 
ATOM     14  H   UNL     1       4.297   8.499   5.326  0.00  0.00    +0.000 HD
ATOM     15  H   UNL     1       5.953   8.931   4.869  0.00  0.00    +0.000 HD
ATOM     16  H   UNL     1       4.596   9.442   3.852  0.00  0.00    +0.000 HD
ENDBRANCH  10  13
ENDBRANCH   7  10
ENDBRANCH   4   7
ENDBRANCH   1   4
BRANCH   1  17
ATOM     17  C   UNL     1       4.014   9.071   0.535  0.00  0.00    +0.000 C 
ATOM     18  H   UNL     1       3.581   9.081  -0.472  0.00  0.00    +0.000 HD
ATOM     19  H   UNL     1       3.430   8.360   1.132  0.00  0.00    +0.000 HD
BRANCH  17  20
ATOM     20  C   UNL     1       3.903  10.470   1.149  0.00  0.00    +0.000 C 
ATOM     21  H   UNL     1       3.279  10.427   2.050  0.00  0.00    +0.000 HD
ATOM     22  H   UNL     1       4.895  10.807   1.475  0.00  0.00    +0.000 HD
BRANCH  20  23
ATOM     23  C   UNL     1       3.313  11.488   0.177  0.00  0.00    +0.000 C 
ATOM     24  H   UNL     1       2.221  11.506   0.261  0.00  0.00    +0.000 HD
ATOM     25  H   UNL     1       3.686  12.491   0.414  0.00  0.00    +0.000 HD
BRANCH  23  27
ATOM     26  O   UNL     1       2.835  11.207  -2.190  0.00  0.00    +0.000 OA
ATOM     27  C   UNL     1       3.647  11.218  -1.272  0.00  0.00    +0.000 C 
ATOM     28  H   UNL     1       4.717  11.033  -1.473  0.00  0.00    +0.000 HD
ENDBRANCH  23  27
ENDBRANCH  20  23
ENDBRANCH  17  20
ENDBRANCH   1  17
TORSDOF 8
ENDMDL
MODEL 3
REMARK VINA RESULT:    -4.211     13.740     15.143
REMARK INTER + INTRA:          -6.693
REMARK INTER:                  -6.068
REMARK INTRA:                  -0.625
REMARK UNBOUND:                -0.637
REMARK  Name = 31289
REMARK  8 active torsions:
REMARK  status: ('A' for Active; 'I' for Inactive)
REMARK    1  A    between atoms: C_2  and  C_3
REMARK    2  A    between atoms: C_2  and  C_4
REMARK    3  A    between atoms: C_3  and  C_5
REMARK    4  A    between atoms: C_4  and  C_6
REMARK    5  A    between atoms: C_5  and  C_7
REMARK    6  A    between atoms: C_6  and  C_8
REMARK    7  A    between atoms: C_7  and  C_9
REMARK    8  A    between atoms: C_8  and  C_10
REMARK                            x       y       z     vdW  Elec       q    Type
REMARK                         _______ _______ _______ _____ _____    ______ ____
ROOT
ATOM      1  C   UNL     1      -2.748   9.798  -9.839  0.00  0.00    +0.000 C 
ATOM      2  H   UNL     1      -3.457   9.718 -10.671  0.00  0.00    +0.000 HD
ATOM      3  H   UNL     1      -2.984  10.724  -9.301  0.00  0.00    +0.000 HD
ENDROOT
BRANCH   1   4
ATOM      4  C   UNL     1      -2.925   8.604  -8.898  0.00  0.00    +0.000 C 
ATOM      5  H   UNL     1      -2.136   8.623  -8.137  0.00  0.00    +0.000 HD
ATOM      6  H   UNL     1      -3.880   8.703  -8.366  0.00  0.00    +0.000 HD
BRANCH   4   7
ATOM      7  C   UNL     1      -2.896   7.252  -9.617  0.00  0.00    +0.000 C 
ATOM      8  H   UNL     1      -1.922   7.125 -10.105  0.00  0.00    +0.000 HD
ATOM      9  H   UNL     1      -2.983   6.453  -8.870  0.00  0.00    +0.000 HD
BRANCH   7  10
ATOM     10  C   UNL     1      -4.005   7.094 -10.658  0.00  0.00    +0.000 C 
ATOM     11  H   UNL     1      -4.637   6.237 -10.401  0.00  0.00    +0.000 HD
ATOM     12  H   UNL     1      -4.646   7.984 -10.656  0.00  0.00    +0.000 HD
BRANCH  10  13
ATOM     13  C   UNL     1      -3.430   6.890 -12.052  0.00  0.00    +0.000 C 
ATOM     14  H   UNL     1      -3.237   7.850 -12.541  0.00  0.00    +0.000 HD
ATOM     15  H   UNL     1      -2.486   6.341 -11.996  0.00  0.00    +0.000 HD
ATOM     16  H   UNL     1      -4.120   6.315 -12.680  0.00  0.00    +0.000 HD
ENDBRANCH  10  13
ENDBRANCH   7  10
ENDBRANCH   4   7
ENDBRANCH   1   4
BRANCH   1  17
ATOM     17  C   UNL     1      -1.318   9.868 -10.382  0.00  0.00    +0.000 C 
ATOM     18  H   UNL     1      -0.788  10.711  -9.923  0.00  0.00    +0.000 HD
ATOM     19  H   UNL     1      -0.776   8.956 -10.107  0.00  0.00    +0.000 HD
BRANCH  17  20
ATOM     20  C   UNL     1      -1.310  10.032 -11.905  0.00  0.00    +0.000 C 
ATOM     21  H   UNL     1      -2.327   9.896 -12.294  0.00  0.00    +0.000 HD
ATOM     22  H   UNL     1      -1.014  11.057 -12.162  0.00  0.00    +0.000 HD
BRANCH  20  23
ATOM     23  C   UNL     1      -0.371   9.045 -12.592  0.00  0.00    +0.000 C 
ATOM     24  H   UNL     1       0.483   8.819 -11.944  0.00  0.00    +0.000 HD
ATOM     25  H   UNL     1      -0.898   8.105 -12.795  0.00  0.00    +0.000 HD
BRANCH  23  27
ATOM     26  O   UNL     1       0.509   8.821 -14.848  0.00  0.00    +0.000 OA
ATOM     27  C   UNL     1       0.183   9.539 -13.909  0.00  0.00    +0.000 C 
ATOM     28  H   UNL     1       0.272  10.636 -13.990  0.00  0.00    +0.000 HD
ENDBRANCH  23  27
ENDBRANCH  20  23
ENDBRANCH  17  20
ENDBRANCH   1  17
TORSDOF 8
ENDMDL
MODEL 4
REMARK VINA RESULT:    -4.182      1.787      3.774
REMARK INTER + INTRA:          -6.653
REMARK INTER:                  -6.040
REMARK INTRA:                  -0.613
REMARK UNBOUND:                -0.637
REMARK  Name = 31289
REMARK  8 active torsions:
REMARK  status: ('A' for Active; 'I' for Inactive)
REMARK    1  A    between atoms: C_2  and  C_3
REMARK    2  A    between atoms: C_2  and  C_4
REMARK    3  A    between atoms: C_3  and  C_5
REMARK    4  A    between atoms: C_4  and  C_6
REMARK    5  A    between atoms: C_5  and  C_7
REMARK    6  A    between atoms: C_6  and  C_8
REMARK    7  A    between atoms: C_7  and  C_9
REMARK    8  A    between atoms: C_8  and  C_10
REMARK                            x       y       z     vdW  Elec       q    Type
REMARK                         _______ _______ _______ _____ _____    ______ ____
ROOT
ATOM      1  C   UNL     1       6.631  10.834  -1.223  0.00  0.00    +0.000 C 
ATOM      2  H   UNL     1       5.896  10.023  -1.299  0.00  0.00    +0.000 HD
ATOM      3  H   UNL     1       6.629  11.363  -2.184  0.00  0.00    +0.000 HD
ENDROOT
BRANCH   1   4
ATOM      4  C   UNL     1       6.216  11.798  -0.110  0.00  0.00    +0.000 C 
ATOM      5  H   UNL     1       6.823  11.603   0.782  0.00  0.00    +0.000 HD
ATOM      6  H   UNL     1       6.436  12.826  -0.424  0.00  0.00    +0.000 HD
BRANCH   4   7
ATOM      7  C   UNL     1       4.734  11.699   0.261  0.00  0.00    +0.000 C 
ATOM      8  H   UNL     1       4.645  11.488   1.334  0.00  0.00    +0.000 HD
ATOM      9  H   UNL     1       4.261  12.675   0.090  0.00  0.00    +0.000 HD
BRANCH   7  10
ATOM     10  C   UNL     1       3.981  10.627  -0.528  0.00  0.00    +0.000 C 
ATOM     11  H   UNL     1       4.695   9.950  -1.009  0.00  0.00    +0.000 HD
ATOM     12  H   UNL     1       3.370  10.024   0.155  0.00  0.00    +0.000 HD
BRANCH  10  13
ATOM     13  C   UNL     1       3.087  11.247  -1.591  0.00  0.00    +0.000 C 
ATOM     14  H   UNL     1       3.515  11.112  -2.590  0.00  0.00    +0.000 HD
ATOM     15  H   UNL     1       2.100  10.776  -1.578  0.00  0.00    +0.000 HD
ATOM     16  H   UNL     1       2.954  12.319  -1.415  0.00  0.00    +0.000 HD
ENDBRANCH  10  13
ENDBRANCH   7  10
ENDBRANCH   4   7
ENDBRANCH   1   4
BRANCH   1  17
ATOM     17  C   UNL     1       8.021  10.249  -0.961  0.00  0.00    +0.000 C 
ATOM     18  H   UNL     1       8.721  10.595  -1.730  0.00  0.00    +0.000 HD
ATOM     19  H   UNL     1       8.396  10.610   0.004  0.00  0.00    +0.000 HD
BRANCH  17  20
ATOM     20  C   UNL     1       7.988   8.717  -0.958  0.00  0.00    +0.000 C 
ATOM     21  H   UNL     1       8.123   8.345  -1.981  0.00  0.00    +0.000 HD
ATOM     22  H   UNL     1       8.833   8.333  -0.374  0.00  0.00    +0.000 HD
BRANCH  20  23
ATOM     23  C   UNL     1       6.684   8.163  -0.389  0.00  0.00    +0.000 C 
ATOM     24  H   UNL     1       5.846   8.818  -0.653  0.00  0.00    +0.000 HD
ATOM     25  H   UNL     1       6.483   7.172  -0.811  0.00  0.00    +0.000 HD
BRANCH  23  27
ATOM     26  O   UNL     1       6.445   8.923   1.908  0.00  0.00    +0.000 OA
ATOM     27  C   UNL     1       6.683   8.018   1.115  0.00  0.00    +0.000 C 
ATOM     28  H   UNL     1       6.906   7.001   1.482  0.00  0.00    +0.000 HD
ENDBRANCH  23  27
ENDBRANCH  20  23
ENDBRANCH  17  20
ENDBRANCH   1  17
TORSDOF 8
ENDMDL
MODEL 5
REMARK VINA RESULT:    -4.128      1.236      3.309
REMARK INTER + INTRA:          -6.575
REMARK INTER:                  -5.976
REMARK INTRA:                  -0.599
REMARK UNBOUND:                -0.637
REMARK  Name = 31289
REMARK  8 active torsions:
REMARK  status: ('A' for Active; 'I' for Inactive)
REMARK    1  A    between atoms: C_2  and  C_3
REMARK    2  A    between atoms: C_2  and  C_4
REMARK    3  A    between atoms: C_3  and  C_5
REMARK    4  A    between atoms: C_4  and  C_6
REMARK    5  A    between atoms: C_5  and  C_7
REMARK    6  A    between atoms: C_6  and  C_8
REMARK    7  A    between atoms: C_7  and  C_9
REMARK    8  A    between atoms: C_8  and  C_10
REMARK                            x       y       z     vdW  Elec       q    Type
REMARK                         _______ _______ _______ _____ _____    ______ ____
ROOT
ATOM      1  C   UNL     1       6.747   8.720   0.093  0.00  0.00    +0.000 C 
ATOM      2  H   UNL     1       7.168   7.836  -0.401  0.00  0.00    +0.000 HD
ATOM      3  H   UNL     1       5.662   8.691  -0.061  0.00  0.00    +0.000 HD
ENDROOT
BRANCH   1   4
ATOM      4  C   UNL     1       7.051   8.663   1.591  0.00  0.00    +0.000 C 
ATOM      5  H   UNL     1       8.057   8.252   1.741  0.00  0.00    +0.000 HD
ATOM      6  H   UNL     1       7.061   9.683   1.996  0.00  0.00    +0.000 HD
BRANCH   4   7
ATOM      7  C   UNL     1       6.044   7.825   2.385  0.00  0.00    +0.000 C 
ATOM      8  H   UNL     1       5.661   7.021   1.744  0.00  0.00    +0.000 HD
ATOM      9  H   UNL     1       6.568   7.342   3.220  0.00  0.00    +0.000 HD
BRANCH   7  10
ATOM     10  C   UNL     1       4.869   8.640   2.927  0.00  0.00    +0.000 C 
ATOM     11  H   UNL     1       4.702   8.394   3.982  0.00  0.00    +0.000 HD
ATOM     12  H   UNL     1       5.105   9.710   2.875  0.00  0.00    +0.000 HD
BRANCH  10  13
ATOM     13  C   UNL     1       3.595   8.364   2.143  0.00  0.00    +0.000 C 
ATOM     14  H   UNL     1       3.010   9.280   2.011  0.00  0.00    +0.000 HD
ATOM     15  H   UNL     1       3.838   7.970   1.152  0.00  0.00    +0.000 HD
ATOM     16  H   UNL     1       2.970   7.627   2.658  0.00  0.00    +0.000 HD
ENDBRANCH  10  13
ENDBRANCH   7  10
ENDBRANCH   4   7
ENDBRANCH   1   4
BRANCH   1  17
ATOM     17  C   UNL     1       7.323   9.989  -0.542  0.00  0.00    +0.000 C 
ATOM     18  H   UNL     1       8.338  10.163  -0.166  0.00  0.00    +0.000 HD
ATOM     19  H   UNL     1       7.397   9.856  -1.627  0.00  0.00    +0.000 HD
BRANCH  17  20
ATOM     20  C   UNL     1       6.450  11.209  -0.232  0.00  0.00    +0.000 C 
ATOM     21  H   UNL     1       6.629  11.536   0.800  0.00  0.00    +0.000 HD
ATOM     22  H   UNL     1       6.747  12.045  -0.878  0.00  0.00    +0.000 HD
BRANCH  20  23
ATOM     23  C   UNL     1       4.963  10.925  -0.421  0.00  0.00    +0.000 C 
ATOM     24  H   UNL     1       4.704  10.946  -1.485  0.00  0.00    +0.000 HD
ATOM     25  H   UNL     1       4.720   9.929  -0.034  0.00  0.00    +0.000 HD
BRANCH  23  27
ATOM     26  O   UNL     1       3.215  11.615   1.122  0.00  0.00    +0.000 OA
ATOM     27  C   UNL     1       4.056  11.910   0.281  0.00  0.00    +0.000 C 
ATOM     28  H   UNL     1       4.206  12.965  -0.010  0.00  0.00    +0.000 HD
ENDBRANCH  23  27
ENDBRANCH  20  23
ENDBRANCH  17  20
ENDBRANCH   1  17
TORSDOF 8
ENDMDL
MODEL 6
REMARK VINA RESULT:    -4.121      1.942      3.811
REMARK INTER + INTRA:          -6.565
REMARK INTER:                  -6.180
REMARK INTRA:                  -0.385
REMARK UNBOUND:                -0.637
REMARK  Name = 31289
REMARK  8 active torsions:
REMARK  status: ('A' for Active; 'I' for Inactive)
REMARK    1  A    between atoms: C_2  and  C_3
REMARK    2  A    between atoms: C_2  and  C_4
REMARK    3  A    between atoms: C_3  and  C_5
REMARK    4  A    between atoms: C_4  and  C_6
REMARK    5  A    between atoms: C_5  and  C_7
REMARK    6  A    between atoms: C_6  and  C_8
REMARK    7  A    between atoms: C_7  and  C_9
REMARK    8  A    between atoms: C_8  and  C_10
REMARK                            x       y       z     vdW  Elec       q    Type
REMARK                         _______ _______ _______ _____ _____    ______ ____
ROOT
ATOM      1  C   UNL     1       6.942   8.510   2.136  0.00  0.00    +0.000 C 
ATOM      2  H   UNL     1       7.214   9.252   2.896  0.00  0.00    +0.000 HD
ATOM      3  H   UNL     1       7.877   8.079   1.756  0.00  0.00    +0.000 HD
ENDROOT
BRANCH   1   4
ATOM      4  C   UNL     1       6.096   7.408   2.776  0.00  0.00    +0.000 C 
ATOM      5  H   UNL     1       5.033   7.638   2.630  0.00  0.00    +0.000 HD
ATOM      6  H   UNL     1       6.289   6.459   2.259  0.00  0.00    +0.000 HD
BRANCH   4   7
ATOM      7  C   UNL     1       6.369   7.221   4.271  0.00  0.00    +0.000 C 
ATOM      8  H   UNL     1       5.604   6.560   4.696  0.00  0.00    +0.000 HD
ATOM      9  H   UNL     1       7.332   6.711   4.393  0.00  0.00    +0.000 HD
BRANCH   7  10
ATOM     10  C   UNL     1       6.389   8.536   5.053  0.00  0.00    +0.000 C 
ATOM     11  H   UNL     1       6.169   9.372   4.380  0.00  0.00    +0.000 HD
ATOM     12  H   UNL     1       5.606   8.522   5.822  0.00  0.00    +0.000 HD
BRANCH  10  13
ATOM     13  C   UNL     1       7.740   8.768   5.711  0.00  0.00    +0.000 C 
ATOM     14  H   UNL     1       8.240   9.643   5.283  0.00  0.00    +0.000 HD
ATOM     15  H   UNL     1       7.614   8.939   6.784  0.00  0.00    +0.000 HD
ATOM     16  H   UNL     1       8.394   7.899   5.580  0.00  0.00    +0.000 HD
ENDBRANCH  10  13
ENDBRANCH   7  10
ENDBRANCH   4   7
ENDBRANCH   1   4
BRANCH   1  17
ATOM     17  C   UNL     1       6.189   9.194   0.992  0.00  0.00    +0.000 C 
ATOM     18  H   UNL     1       6.456  10.257   0.955  0.00  0.00    +0.000 HD
ATOM     19  H   UNL     1       6.493   8.751   0.035  0.00  0.00    +0.000 HD
BRANCH  17  20
ATOM     20  C   UNL     1       4.673   9.056   1.164  0.00  0.00    +0.000 C 
ATOM     21  H   UNL     1       4.413   7.997   1.282  0.00  0.00    +0.000 HD
ATOM     22  H   UNL     1       4.362   9.557   2.088  0.00  0.00    +0.000 HD
BRANCH  20  23
ATOM     23  C   UNL     1       3.898   9.637  -0.015  0.00  0.00    +0.000 C 
ATOM     24  H   UNL     1       4.466   9.509  -0.943  0.00  0.00    +0.000 HD
ATOM     25  H   UNL     1       2.942   9.112  -0.130  0.00  0.00    +0.000 HD
BRANCH  23  27
ATOM     26  O   UNL     1       3.226  11.659   1.157  0.00  0.00    +0.000 OA
ATOM     27  C   UNL     1       3.586  11.110   0.121  0.00  0.00    +0.000 C 
ATOM     28  H   UNL     1       3.717  11.698  -0.804  0.00  0.00    +0.000 HD
ENDBRANCH  23  27
ENDBRANCH  20  23
ENDBRANCH  17  20
ENDBRANCH   1  17
TORSDOF 8
ENDMDL
MODEL 7
REMARK VINA RESULT:    -4.069      1.452      2.689
REMARK INTER + INTRA:          -6.489
REMARK INTER:                  -6.028
REMARK INTRA:                  -0.462
REMARK UNBOUND:                -0.637
REMARK  Name = 31289
REMARK  8 active torsions:
REMARK  status: ('A' for Active; 'I' for Inactive)
REMARK    1  A    between atoms: C_2  and  C_3
REMARK    2  A    between atoms: C_2  and  C_4
REMARK    3  A    between atoms: C_3  and  C_5
REMARK    4  A    between atoms: C_4  and  C_6
REMARK    5  A    between atoms: C_5  and  C_7
REMARK    6  A    between atoms: C_6  and  C_8
REMARK    7  A    between atoms: C_7  and  C_9
REMARK    8  A    between atoms: C_8  and  C_10
REMARK                            x       y       z     vdW  Elec       q    Type
REMARK                         _______ _______ _______ _____ _____    ______ ____
ROOT
ATOM      1  C   UNL     1       5.695  11.267  -0.108  0.00  0.00    +0.000 C 
ATOM      2  H   UNL     1       5.954  10.490   0.622  0.00  0.00    +0.000 HD
ATOM      3  H   UNL     1       5.772  12.233   0.405  0.00  0.00    +0.000 HD
ENDROOT
BRANCH   1   4
ATOM      4  C   UNL     1       6.688  11.228  -1.271  0.00  0.00    +0.000 C 
ATOM      5  H   UNL     1       6.150  11.394  -2.213  0.00  0.00    +0.000 HD
ATOM      6  H   UNL     1       7.401  12.055  -1.165  0.00  0.00    +0.000 HD
BRANCH   4   7
ATOM      7  C   UNL     1       7.466   9.912  -1.364  0.00  0.00    +0.000 C 
ATOM      8  H   UNL     1       6.759   9.074  -1.340  0.00  0.00    +0.000 HD
ATOM      9  H   UNL     1       7.974   9.870  -2.336  0.00  0.00    +0.000 HD
BRANCH   7  10
ATOM     10  C   UNL     1       8.496   9.736  -0.248  0.00  0.00    +0.000 C 
ATOM     11  H   UNL     1       8.285  10.439   0.566  0.00  0.00    +0.000 HD
ATOM     12  H   UNL     1       8.422   8.724   0.169  0.00  0.00    +0.000 HD
BRANCH  10  13
ATOM     13  C   UNL     1       9.910   9.972  -0.756  0.00  0.00    +0.000 C 
ATOM     14  H   UNL     1      10.478   9.036  -0.784  0.00  0.00    +0.000 HD
ATOM     15  H   UNL     1       9.885  10.384  -1.769  0.00  0.00    +0.000 HD
ATOM     16  H   UNL     1      10.444  10.680  -0.115  0.00  0.00    +0.000 HD
ENDBRANCH  10  13
ENDBRANCH   7  10
ENDBRANCH   4   7
ENDBRANCH   1   4
BRANCH   1  17
ATOM     17  C   UNL     1       4.259  11.058  -0.598  0.00  0.00    +0.000 C 
ATOM     18  H   UNL     1       3.634  11.903  -0.286  0.00  0.00    +0.000 HD
ATOM     19  H   UNL     1       4.245  11.031  -1.694  0.00  0.00    +0.000 HD
BRANCH  17  20
ATOM     20  C   UNL     1       3.668   9.757  -0.045  0.00  0.00    +0.000 C 
ATOM     21  H   UNL     1       2.706   9.968   0.439  0.00  0.00    +0.000 HD
ATOM     22  H   UNL     1       3.455   9.070  -0.873  0.00  0.00    +0.000 HD
BRANCH  20  23
ATOM     23  C   UNL     1       4.596   9.074   0.956  0.00  0.00    +0.000 C 
ATOM     24  H   UNL     1       4.808   8.047   0.638  0.00  0.00    +0.000 HD
ATOM     25  H   UNL     1       5.548   9.613   1.012  0.00  0.00    +0.000 HD
BRANCH  23  27
ATOM     26  O   UNL     1       2.949   9.444   2.706  0.00  0.00    +0.000 OA
ATOM     27  C   UNL     1       4.039   9.003   2.360  0.00  0.00    +0.000 C 
ATOM     28  H   UNL     1       4.692   8.496   3.091  0.00  0.00    +0.000 HD
ENDBRANCH  23  27
ENDBRANCH  20  23
ENDBRANCH  17  20
ENDBRANCH   1  17
TORSDOF 8
ENDMDL
MODEL 8
REMARK VINA RESULT:    -4.016      1.490      1.839
REMARK INTER + INTRA:          -6.414
REMARK INTER:                  -5.868
REMARK INTRA:                  -0.546
REMARK UNBOUND:                -0.637
REMARK  Name = 31289
REMARK  8 active torsions:
REMARK  status: ('A' for Active; 'I' for Inactive)
REMARK    1  A    between atoms: C_2  and  C_3
REMARK    2  A    between atoms: C_2  and  C_4
REMARK    3  A    between atoms: C_3  and  C_5
REMARK    4  A    between atoms: C_4  and  C_6
REMARK    5  A    between atoms: C_5  and  C_7
REMARK    6  A    between atoms: C_6  and  C_8
REMARK    7  A    between atoms: C_7  and  C_9
REMARK    8  A    between atoms: C_8  and  C_10
REMARK                            x       y       z     vdW  Elec       q    Type
REMARK                         _______ _______ _______ _____ _____    ______ ____
ROOT
ATOM      1  C   UNL     1       6.821   8.359   2.116  0.00  0.00    +0.000 C 
ATOM      2  H   UNL     1       7.883   8.495   2.353  0.00  0.00    +0.000 HD
ATOM      3  H   UNL     1       6.323   9.319   2.300  0.00  0.00    +0.000 HD
ENDROOT
BRANCH   1   4
ATOM      4  C   UNL     1       6.671   7.982   0.641  0.00  0.00    +0.000 C 
ATOM      5  H   UNL     1       7.550   7.409   0.322  0.00  0.00    +0.000 HD
ATOM      6  H   UNL     1       5.803   7.319   0.525  0.00  0.00    +0.000 HD
BRANCH   4   7
ATOM      7  C   UNL     1       6.497   9.191  -0.283  0.00  0.00    +0.000 C 
ATOM      8  H   UNL     1       6.991   8.985  -1.240  0.00  0.00    +0.000 HD
ATOM      9  H   UNL     1       5.429   9.320  -0.498  0.00  0.00    +0.000 HD
BRANCH   7  10
ATOM     10  C   UNL     1       7.057  10.488   0.304  0.00  0.00    +0.000 C 
ATOM     11  H   UNL     1       7.120  10.405   1.395  0.00  0.00    +0.000 HD
ATOM     12  H   UNL     1       8.074  10.656  -0.070  0.00  0.00    +0.000 HD
BRANCH  10  13
ATOM     13  C   UNL     1       6.182  11.680  -0.055  0.00  0.00    +0.000 C 
ATOM     14  H   UNL     1       6.784  12.499  -0.461  0.00  0.00    +0.000 HD
ATOM     15  H   UNL     1       5.444  11.394  -0.809  0.00  0.00    +0.000 HD
ATOM     16  H   UNL     1       5.644  12.050   0.824  0.00  0.00    +0.000 HD
ENDBRANCH  10  13
ENDBRANCH   7  10
ENDBRANCH   4   7
ENDBRANCH   1   4
BRANCH   1  17
ATOM     17  C   UNL     1       6.221   7.286   3.027  0.00  0.00    +0.000 C 
ATOM     18  H   UNL     1       6.404   6.292   2.601  0.00  0.00    +0.000 HD
ATOM     19  H   UNL     1       6.716   7.315   4.005  0.00  0.00    +0.000 HD
BRANCH  17  20
ATOM     20  C   UNL     1       4.714   7.490   3.209  0.00  0.00    +0.000 C 
ATOM     21  H   UNL     1       4.175   6.987   2.397  0.00  0.00    +0.000 HD
ATOM     22  H   UNL     1       4.388   7.012   4.141  0.00  0.00    +0.000 HD
BRANCH  20  23
ATOM     23  C   UNL     1       4.325   8.966   3.232  0.00  0.00    +0.000 C 
ATOM     24  H   UNL     1       3.800   9.205   4.164  0.00  0.00    +0.000 HD
ATOM     25  H   UNL     1       5.224   9.591   3.181  0.00  0.00    +0.000 HD
BRANCH  23  27
ATOM     26  O   UNL     1       3.268  10.535   1.705  0.00  0.00    +0.000 OA
ATOM     27  C   UNL     1       3.425   9.382   2.091  0.00  0.00    +0.000 C 
ATOM     28  H   UNL     1       2.900   8.551   1.590  0.00  0.00    +0.000 HD
ENDBRANCH  23  27
ENDBRANCH  20  23
ENDBRANCH  17  20
ENDBRANCH   1  17
TORSDOF 8
ENDMDL
MODEL 9
REMARK VINA RESULT:    -4.003      1.949      3.527
REMARK INTER + INTRA:          -6.395
REMARK INTER:                  -5.758
REMARK INTRA:                  -0.637
REMARK UNBOUND:                -0.637
REMARK  Name = 31289
REMARK  8 active torsions:
REMARK  status: ('A' for Active; 'I' for Inactive)
REMARK    1  A    between atoms: C_2  and  C_3
REMARK    2  A    between atoms: C_2  and  C_4
REMARK    3  A    between atoms: C_3  and  C_5
REMARK    4  A    between atoms: C_4  and  C_6
REMARK    5  A    between atoms: C_5  and  C_7
REMARK    6  A    between atoms: C_6  and  C_8
REMARK    7  A    between atoms: C_7  and  C_9
REMARK    8  A    between atoms: C_8  and  C_10
REMARK                            x       y       z     vdW  Elec       q    Type
REMARK                         _______ _______ _______ _____ _____    ______ ____
ROOT
ATOM      1  C   UNL     1       4.027   8.962   3.075  0.00  0.00    +0.000 C 
ATOM      2  H   UNL     1       3.139   9.034   3.714  0.00  0.00    +0.000 HD
ATOM      3  H   UNL     1       4.682   9.804   3.334  0.00  0.00    +0.000 HD
ENDROOT
BRANCH   1   4
ATOM      4  C   UNL     1       4.755   7.646   3.356  0.00  0.00    +0.000 C 
ATOM      5  H   UNL     1       4.977   7.577   4.428  0.00  0.00    +0.000 HD
ATOM      6  H   UNL     1       4.090   6.807   3.115  0.00  0.00    +0.000 HD
BRANCH   4   7
ATOM      7  C   UNL     1       6.057   7.489   2.564  0.00  0.00    +0.000 C 
ATOM      8  H   UNL     1       6.479   6.495   2.760  0.00  0.00    +0.000 HD
ATOM      9  H   UNL     1       5.825   7.529   1.492  0.00  0.00    +0.000 HD
BRANCH   7  10
ATOM     10  C   UNL     1       7.102   8.555   2.897  0.00  0.00    +0.000 C 
ATOM     11  H   UNL     1       6.635   9.370   3.460  0.00  0.00    +0.000 HD
ATOM     12  H   UNL     1       7.882   8.123   3.535  0.00  0.00    +0.000 HD
BRANCH  10  13
ATOM     13  C   UNL     1       7.737   9.120   1.635  0.00  0.00    +0.000 C 
ATOM     14  H   UNL     1       7.317  10.100   1.390  0.00  0.00    +0.000 HD
ATOM     15  H   UNL     1       8.816   9.237   1.774  0.00  0.00    +0.000 HD
ATOM     16  H   UNL     1       7.576   8.452   0.782  0.00  0.00    +0.000 HD
ENDBRANCH  10  13
ENDBRANCH   7  10
ENDBRANCH   4   7
ENDBRANCH   1   4
BRANCH   1  17
ATOM     17  C   UNL     1       3.615   9.065   1.604  0.00  0.00    +0.000 C 
ATOM     18  H   UNL     1       4.205   8.361   1.004  0.00  0.00    +0.000 HD
ATOM     19  H   UNL     1       2.562   8.779   1.497  0.00  0.00    +0.000 HD
BRANCH  17  20
ATOM     20  C   UNL     1       3.819  10.485   1.068  0.00  0.00    +0.000 C 
ATOM     21  H   UNL     1       2.846  10.931   0.830  0.00  0.00    +0.000 HD
ATOM     22  H   UNL     1       4.265  11.112   1.850  0.00  0.00    +0.000 HD
BRANCH  20  23
ATOM     23  C   UNL     1       4.705  10.517  -0.175  0.00  0.00    +0.000 C 
ATOM     24  H   UNL     1       5.209   9.554  -0.307  0.00  0.00    +0.000 HD
ATOM     25  H   UNL     1       4.094  10.703  -1.065  0.00  0.00    +0.000 HD
BRANCH  23  27
ATOM     26  O   UNL     1       6.811  11.562  -0.795  0.00  0.00    +0.000 OA
ATOM     27  C   UNL     1       5.777  11.582  -0.137  0.00  0.00    +0.000 C 
ATOM     28  H   UNL     1       5.564  12.429   0.539  0.00  0.00    +0.000 HD
ENDBRANCH  23  27
ENDBRANCH  20  23
ENDBRANCH  17  20
ENDBRANCH   1  17
TORSDOF 8
ENDMDL
MODEL 10
REMARK VINA RESULT:    -4.001      2.779      4.605
REMARK INTER + INTRA:          -6.392
REMARK INTER:                  -5.860
REMARK INTRA:                  -0.532
REMARK UNBOUND:                -0.637
REMARK  Name = 31289
REMARK  8 active torsions:
REMARK  status: ('A' for Active; 'I' for Inactive)
REMARK    1  A    between atoms: C_2  and  C_3
REMARK    2  A    between atoms: C_2  and  C_4
REMARK    3  A    between atoms: C_3  and  C_5
REMARK    4  A    between atoms: C_4  and  C_6
REMARK    5  A    between atoms: C_5  and  C_7
REMARK    6  A    between atoms: C_6  and  C_8
REMARK    7  A    between atoms: C_7  and  C_9
REMARK    8  A    between atoms: C_8  and  C_10
REMARK                            x       y       z     vdW  Elec       q    Type
REMARK                         _______ _______ _______ _____ _____    ______ ____
ROOT
ATOM      1  C   UNL     1       5.879   8.702   0.806  0.00  0.00    +0.000 C 
ATOM      2  H   UNL     1       6.289   9.443   1.502  0.00  0.00    +0.000 HD
ATOM      3  H   UNL     1       5.752   7.767   1.365  0.00  0.00    +0.000 HD
ENDROOT
BRANCH   1   4
ATOM      4  C   UNL     1       4.518   9.178   0.293  0.00  0.00    +0.000 C 
ATOM      5  H   UNL     1       4.610   9.470  -0.760  0.00  0.00    +0.000 HD
ATOM      6  H   UNL     1       3.807   8.343   0.330  0.00  0.00    +0.000 HD
BRANCH   4   7
ATOM      7  C   UNL     1       3.944  10.352   1.091  0.00  0.00    +0.000 C 
ATOM      8  H   UNL     1       3.053  10.016   1.636  0.00  0.00    +0.000 HD
ATOM      9  H   UNL     1       4.679  10.660   1.845  0.00  0.00    +0.000 HD
BRANCH   7  10
ATOM     10  C   UNL     1       3.576  11.555   0.220  0.00  0.00    +0.000 C 
ATOM     11  H   UNL     1       2.608  11.959   0.536  0.00  0.00    +0.000 HD
ATOM     12  H   UNL     1       4.320  12.349   0.353  0.00  0.00    +0.000 HD
BRANCH  10  13
ATOM     13  C   UNL     1       3.501  11.172  -1.250  0.00  0.00    +0.000 C 
ATOM     14  H   UNL     1       3.836  10.141  -1.404  0.00  0.00    +0.000 HD
ATOM     15  H   UNL     1       2.472  11.252  -1.610  0.00  0.00    +0.000 HD
ATOM     16  H   UNL     1       4.127  11.833  -1.859  0.00  0.00    +0.000 HD
ENDBRANCH  10  13
ENDBRANCH   7  10
ENDBRANCH   4   7
ENDBRANCH   1   4
BRANCH   1  17
ATOM     17  C   UNL     1       6.860   8.481  -0.349  0.00  0.00    +0.000 C 
ATOM     18  H   UNL     1       7.849   8.227   0.049  0.00  0.00    +0.000 HD
ATOM     19  H   UNL     1       6.526   7.631  -0.957  0.00  0.00    +0.000 HD
BRANCH  17  20
ATOM     20  C   UNL     1       6.972   9.730  -1.229  0.00  0.00    +0.000 C 
ATOM     21  H   UNL     1       6.854   9.448  -2.283  0.00  0.00    +0.000 HD
ATOM     22  H   UNL     1       6.149  10.417  -0.997  0.00  0.00    +0.000 HD
BRANCH  20  23
ATOM     23  C   UNL     1       8.303  10.453  -1.047  0.00  0.00    +0.000 C 
ATOM     24  H   UNL     1       8.486  11.131  -1.889  0.00  0.00    +0.000 HD
ATOM     25  H   UNL     1       8.281  11.053  -0.130  0.00  0.00    +0.000 HD
BRANCH  23  27
ATOM     26  O   UNL     1       9.976   8.900  -1.885  0.00  0.00    +0.000 OA
ATOM     27  C   UNL     1       9.496   9.529  -0.949  0.00  0.00    +0.000 C 
ATOM     28  H   UNL     1       9.942   9.457   0.058  0.00  0.00    +0.000 HD
ENDBRANCH  23  27
ENDBRANCH  20  23
ENDBRANCH  17  20
ENDBRANCH   1  17
TORSDOF 8
ENDMDL
