MODEL 1
REMARK VINA RESULT:    -4.504      0.000      0.000
REMARK INTER + INTRA:          -7.087
REMARK INTER:                  -6.541
REMARK INTRA:                  -0.546
REMARK UNBOUND:                -0.475
REMARK  Name = 8158
REMARK  9 active torsions:
REMARK  status: ('A' for Active; 'I' for Inactive)
REMARK    1  A    between atoms: O_1  and  C_11
REMARK    2  A    between atoms: C_3  and  C_4
REMARK    3  A    between atoms: C_3  and  C_5
REMARK    4  A    between atoms: C_4  and  C_6
REMARK    5  A    between atoms: C_5  and  C_7
REMARK    6  A    between atoms: C_6  and  C_8
REMARK    7  A    between atoms: C_7  and  C_9
REMARK    8  A    between atoms: C_8  and  C_10
REMARK    9  A    between atoms: C_9  and  C_11
REMARK                            x       y       z     vdW  Elec       q    Type
REMARK                         _______ _______ _______ _____ _____    ______ ____
ROOT
ATOM      1  C   UNL     1       5.968  11.904   0.038  0.00  0.00    +0.000 C 
ATOM      2  H   UNL     1       6.590  11.642   0.902  0.00  0.00    +0.000 HD
ATOM      3  H   UNL     1       6.068  12.987  -0.107  0.00  0.00    +0.000 HD
ENDROOT
BRANCH   1   4
ATOM      4  C   UNL     1       6.501  11.181  -1.204  0.00  0.00    +0.000 C 
ATOM      5  H   UNL     1       5.757  10.447  -1.539  0.00  0.00    +0.000 HD
ATOM      6  H   UNL     1       6.620  11.906  -2.019  0.00  0.00    +0.000 HD
BRANCH   4   7
ATOM      7  C   UNL     1       7.837  10.471  -0.968  0.00  0.00    +0.000 C 
ATOM      8  H   UNL     1       8.159   9.987  -1.898  0.00  0.00    +0.000 HD
ATOM      9  H   UNL     1       8.601  11.218  -0.718  0.00  0.00    +0.000 HD
BRANCH   7  10
ATOM     10  C   UNL     1       7.776   9.424   0.148  0.00  0.00    +0.000 C 
ATOM     11  H   UNL     1       8.194   8.478  -0.220  0.00  0.00    +0.000 HD
ATOM     12  H   UNL     1       6.729   9.229   0.406  0.00  0.00    +0.000 HD
BRANCH  10  13
ATOM     13  C   UNL     1       8.522   9.833   1.409  0.00  0.00    +0.000 C 
ATOM     14  H   UNL     1       7.901  10.477   2.038  0.00  0.00    +0.000 HD
ATOM     15  H   UNL     1       9.433  10.382   1.151  0.00  0.00    +0.000 HD
ATOM     16  H   UNL     1       8.809   8.954   1.995  0.00  0.00    +0.000 HD
ENDBRANCH  10  13
ENDBRANCH   7  10
ENDBRANCH   4   7
ENDBRANCH   1   4
BRANCH   1  17
ATOM     17  C   UNL     1       4.506  11.576   0.353  0.00  0.00    +0.000 C 
ATOM     18  H   UNL     1       4.404  11.363   1.424  0.00  0.00    +0.000 HD
ATOM     19  H   UNL     1       3.886  12.457   0.145  0.00  0.00    +0.000 HD
BRANCH  17  20
ATOM     20  C   UNL     1       3.962  10.384  -0.446  0.00  0.00    +0.000 C 
ATOM     21  H   UNL     1       4.564  10.265  -1.357  0.00  0.00    +0.000 HD
ATOM     22  H   UNL     1       2.946  10.627  -0.786  0.00  0.00    +0.000 HD
BRANCH  20  23
ATOM     23  C   UNL     1       3.930   9.057   0.307  0.00  0.00    +0.000 C 
ATOM     24  H   UNL     1       4.764   8.428  -0.021  0.00  0.00    +0.000 HD
ATOM     25  H   UNL     1       2.989   8.539   0.094  0.00  0.00    +0.000 HD
BRANCH  23  27
ATOM     26  O   UNL     1       5.078   9.076   2.432  0.00  0.00    +0.000 OA
ATOM     27  C   UNL     1       4.042   9.236   1.800  0.00  0.00    +0.000 C 
BRANCH  27  28
ATOM     28  O   UNL     1       2.864   9.591   2.373  0.00  0.00    +0.000 OA
ATOM     29  H   UNL     1       2.902   9.535   3.352  0.00  0.00    +0.000 HD
ENDBRANCH  27  28
ENDBRANCH  23  27
ENDBRANCH  20  23
ENDBRANCH  17  20
ENDBRANCH   1  17
TORSDOF 9
ENDMDL
MODEL 2
REMARK VINA RESULT:    -4.422      2.759      4.372
REMARK INTER + INTRA:          -6.966
REMARK INTER:                  -6.684
REMARK INTRA:                  -0.282
REMARK UNBOUND:                -0.475
REMARK  Name = 8158
REMARK  9 active torsions:
REMARK  status: ('A' for Active; 'I' for Inactive)
REMARK    1  A    between atoms: O_1  and  C_11
REMARK    2  A    between atoms: C_3  and  C_4
REMARK    3  A    between atoms: C_3  and  C_5
REMARK    4  A    between atoms: C_4  and  C_6
REMARK    5  A    between atoms: C_5  and  C_7
REMARK    6  A    between atoms: C_6  and  C_8
REMARK    7  A    between atoms: C_7  and  C_9
REMARK    8  A    between atoms: C_8  and  C_10
REMARK    9  A    between atoms: C_9  and  C_11
REMARK                            x       y       z     vdW  Elec       q    Type
REMARK                         _______ _______ _______ _____ _____    ______ ____
ROOT
ATOM      1  C   UNL     1       4.532   8.439   2.791  0.00  0.00    +0.000 C 
ATOM      2  H   UNL     1       5.511   8.798   2.452  0.00  0.00    +0.000 HD
ATOM      3  H   UNL     1       4.603   7.347   2.863  0.00  0.00    +0.000 HD
ENDROOT
BRANCH   1   4
ATOM      4  C   UNL     1       4.241   9.015   4.181  0.00  0.00    +0.000 C 
ATOM      5  H   UNL     1       4.241  10.111   4.122  0.00  0.00    +0.000 HD
ATOM      6  H   UNL     1       3.230   8.716   4.490  0.00  0.00    +0.000 HD
BRANCH   4   7
ATOM      7  C   UNL     1       5.243   8.567   5.248  0.00  0.00    +0.000 C 
ATOM      8  H   UNL     1       5.419   9.393   5.948  0.00  0.00    +0.000 HD
ATOM      9  H   UNL     1       4.806   7.747   5.830  0.00  0.00    +0.000 HD
BRANCH   7  10
ATOM     10  C   UNL     1       6.583   8.110   4.664  0.00  0.00    +0.000 C 
ATOM     11  H   UNL     1       6.502   8.055   3.571  0.00  0.00    +0.000 HD
ATOM     12  H   UNL     1       6.806   7.097   5.017  0.00  0.00    +0.000 HD
BRANCH  10  13
ATOM     13  C   UNL     1       7.747   9.021   5.025  0.00  0.00    +0.000 C 
ATOM     14  H   UNL     1       8.591   8.862   4.347  0.00  0.00    +0.000 HD
ATOM     15  H   UNL     1       8.086   8.818   6.046  0.00  0.00    +0.000 HD
ATOM     16  H   UNL     1       7.452  10.072   4.966  0.00  0.00    +0.000 HD
ENDBRANCH  10  13
ENDBRANCH   7  10
ENDBRANCH   4   7
ENDBRANCH   1   4
BRANCH   1  17
ATOM     17  C   UNL     1       3.473   8.803   1.747  0.00  0.00    +0.000 C 
ATOM     18  H   UNL     1       2.690   8.035   1.740  0.00  0.00    +0.000 HD
ATOM     19  H   UNL     1       2.990   9.744   2.038  0.00  0.00    +0.000 HD
BRANCH  17  20
ATOM     20  C   UNL     1       4.039   8.951   0.328  0.00  0.00    +0.000 C 
ATOM     21  H   UNL     1       3.257   8.679  -0.394  0.00  0.00    +0.000 HD
ATOM     22  H   UNL     1       4.843   8.215   0.195  0.00  0.00    +0.000 HD
BRANCH  20  23
ATOM     23  C   UNL     1       4.573  10.338  -0.016  0.00  0.00    +0.000 C 
ATOM     24  H   UNL     1       5.277  10.264  -0.852  0.00  0.00    +0.000 HD
ATOM     25  H   UNL     1       5.097  10.754   0.851  0.00  0.00    +0.000 HD
BRANCH  23  27
ATOM     26  O   UNL     1       2.800  11.927   0.388  0.00  0.00    +0.000 OA
ATOM     27  C   UNL     1       3.480  11.298  -0.412  0.00  0.00    +0.000 C 
BRANCH  27  28
ATOM     28  O   UNL     1       3.326  11.388  -1.757  0.00  0.00    +0.000 OA
ATOM     29  H   UNL     1       4.094  11.823  -2.185  0.00  0.00    +0.000 HD
ENDBRANCH  27  28
ENDBRANCH  23  27
ENDBRANCH  20  23
ENDBRANCH  17  20
ENDBRANCH   1  17
TORSDOF 9
ENDMDL
MODEL 3
REMARK VINA RESULT:    -4.412     28.775     30.566
REMARK INTER + INTRA:          -6.952
REMARK INTER:                  -6.343
REMARK INTRA:                  -0.608
REMARK UNBOUND:                -0.475
REMARK  Name = 8158
REMARK  9 active torsions:
REMARK  status: ('A' for Active; 'I' for Inactive)
REMARK    1  A    between atoms: O_1  and  C_11
REMARK    2  A    between atoms: C_3  and  C_4
REMARK    3  A    between atoms: C_3  and  C_5
REMARK    4  A    between atoms: C_4  and  C_6
REMARK    5  A    between atoms: C_5  and  C_7
REMARK    6  A    between atoms: C_6  and  C_8
REMARK    7  A    between atoms: C_7  and  C_9
REMARK    8  A    between atoms: C_8  and  C_10
REMARK    9  A    between atoms: C_9  and  C_11
REMARK                            x       y       z     vdW  Elec       q    Type
REMARK                         _______ _______ _______ _____ _____    ______ ____
ROOT
ATOM      1  C   UNL     1     -23.432  -2.246   5.816  0.00  0.00    +0.000 C 
ATOM      2  H   UNL     1     -24.473  -2.336   5.485  0.00  0.00    +0.000 HD
ATOM      3  H   UNL     1     -22.937  -1.559   5.119  0.00  0.00    +0.000 HD
ENDROOT
BRANCH   1   4
ATOM      4  C   UNL     1     -23.404  -1.639   7.224  0.00  0.00    +0.000 C 
ATOM      5  H   UNL     1     -23.632  -0.567   7.156  0.00  0.00    +0.000 HD
ATOM      6  H   UNL     1     -24.200  -2.094   7.827  0.00  0.00    +0.000 HD
BRANCH   4   7
ATOM      7  C   UNL     1     -22.064  -1.824   7.940  0.00  0.00    +0.000 C 
ATOM      8  H   UNL     1     -22.247  -2.044   8.999  0.00  0.00    +0.000 HD
ATOM      9  H   UNL     1     -21.550  -2.697   7.520  0.00  0.00    +0.000 HD
BRANCH   7  10
ATOM     10  C   UNL     1     -21.147  -0.602   7.833  0.00  0.00    +0.000 C 
ATOM     11  H   UNL     1     -20.617  -0.462   8.784  0.00  0.00    +0.000 HD
ATOM     12  H   UNL     1     -21.756   0.295   7.674  0.00  0.00    +0.000 HD
BRANCH  10  13
ATOM     13  C   UNL     1     -20.125  -0.704   6.711  0.00  0.00    +0.000 C 
ATOM     14  H   UNL     1     -20.576  -1.131   5.811  0.00  0.00    +0.000 HD
ATOM     15  H   UNL     1     -19.291  -1.345   7.014  0.00  0.00    +0.000 HD
ATOM     16  H   UNL     1     -19.722   0.282   6.460  0.00  0.00    +0.000 HD
ENDBRANCH  10  13
ENDBRANCH   7  10
ENDBRANCH   4   7
ENDBRANCH   1   4
BRANCH   1  17
ATOM     17  C   UNL     1     -22.756  -3.617   5.732  0.00  0.00    +0.000 C 
ATOM     18  H   UNL     1     -22.431  -3.924   6.733  0.00  0.00    +0.000 HD
ATOM     19  H   UNL     1     -23.490  -4.360   5.396  0.00  0.00    +0.000 HD
BRANCH  17  20
ATOM     20  C   UNL     1     -21.549  -3.646   4.784  0.00  0.00    +0.000 C 
ATOM     21  H   UNL     1     -21.474  -2.674   4.278  0.00  0.00    +0.000 HD
ATOM     22  H   UNL     1     -21.743  -4.384   3.995  0.00  0.00    +0.000 HD
BRANCH  20  23
ATOM     23  C   UNL     1     -20.212  -3.968   5.446  0.00  0.00    +0.000 C 
ATOM     24  H   UNL     1     -20.370  -4.184   6.508  0.00  0.00    +0.000 HD
ATOM     25  H   UNL     1     -19.543  -3.106   5.356  0.00  0.00    +0.000 HD
BRANCH  23  27
ATOM     26  O   UNL     1     -19.831  -5.628   3.734  0.00  0.00    +0.000 OA
ATOM     27  C   UNL     1     -19.530  -5.160   4.825  0.00  0.00    +0.000 C 
BRANCH  27  28
ATOM     28  O   UNL     1     -18.546  -5.666   5.609  0.00  0.00    +0.000 OA
ATOM     29  H   UNL     1     -18.707  -6.607   5.838  0.00  0.00    +0.000 HD
ENDBRANCH  27  28
ENDBRANCH  23  27
ENDBRANCH  20  23
ENDBRANCH  17  20
ENDBRANCH   1  17
TORSDOF 9
ENDMDL
MODEL 4
REMARK VINA RESULT:    -4.378     29.025     29.645
REMARK INTER + INTRA:          -6.901
REMARK INTER:                  -6.524
REMARK INTRA:                  -0.377
REMARK UNBOUND:                -0.475
REMARK  Name = 8158
REMARK  9 active torsions:
REMARK  status: ('A' for Active; 'I' for Inactive)
REMARK    1  A    between atoms: O_1  and  C_11
REMARK    2  A    between atoms: C_3  and  C_4
REMARK    3  A    between atoms: C_3  and  C_5
REMARK    4  A    between atoms: C_4  and  C_6
REMARK    5  A    between atoms: C_5  and  C_7
REMARK    6  A    between atoms: C_6  and  C_8
REMARK    7  A    between atoms: C_7  and  C_9
REMARK    8  A    between atoms: C_8  and  C_10
REMARK    9  A    between atoms: C_9  and  C_11
REMARK                            x       y       z     vdW  Elec       q    Type
REMARK                         _______ _______ _______ _____ _____    ______ ____
ROOT
ATOM      1  C   UNL     1     -20.542  -3.524   5.393  0.00  0.00    +0.000 C 
ATOM      2  H   UNL     1     -21.218  -3.806   6.210  0.00  0.00    +0.000 HD
ATOM      3  H   UNL     1     -19.558  -3.344   5.843  0.00  0.00    +0.000 HD
ENDROOT
BRANCH   1   4
ATOM      4  C   UNL     1     -20.435  -4.692   4.406  0.00  0.00    +0.000 C 
ATOM      5  H   UNL     1     -20.878  -5.588   4.860  0.00  0.00    +0.000 HD
ATOM      6  H   UNL     1     -21.031  -4.464   3.512  0.00  0.00    +0.000 HD
BRANCH   4   7
ATOM      7  C   UNL     1     -18.997  -5.001   3.981  0.00  0.00    +0.000 C 
ATOM      8  H   UNL     1     -18.362  -4.134   4.199  0.00  0.00    +0.000 HD
ATOM      9  H   UNL     1     -18.615  -5.833   4.586  0.00  0.00    +0.000 HD
BRANCH   7  10
ATOM     10  C   UNL     1     -18.868  -5.358   2.498  0.00  0.00    +0.000 C 
ATOM     11  H   UNL     1     -19.449  -6.265   2.291  0.00  0.00    +0.000 HD
ATOM     12  H   UNL     1     -17.822  -5.592   2.270  0.00  0.00    +0.000 HD
BRANCH  10  13
ATOM     13  C   UNL     1     -19.336  -4.252   1.562  0.00  0.00    +0.000 C 
ATOM     14  H   UNL     1     -20.422  -4.130   1.616  0.00  0.00    +0.000 HD
ATOM     15  H   UNL     1     -19.069  -4.491   0.528  0.00  0.00    +0.000 HD
ATOM     16  H   UNL     1     -18.869  -3.298   1.823  0.00  0.00    +0.000 HD
ENDBRANCH  10  13
ENDBRANCH   7  10
ENDBRANCH   4   7
ENDBRANCH   1   4
BRANCH   1  17
ATOM     17  C   UNL     1     -21.043  -2.228   4.750  0.00  0.00    +0.000 C 
ATOM     18  H   UNL     1     -20.573  -2.105   3.767  0.00  0.00    +0.000 HD
ATOM     19  H   UNL     1     -22.123  -2.306   4.577  0.00  0.00    +0.000 HD
BRANCH  17  20
ATOM     20  C   UNL     1     -20.763  -0.979   5.596  0.00  0.00    +0.000 C 
ATOM     21  H   UNL     1     -21.678  -0.373   5.645  0.00  0.00    +0.000 HD
ATOM     22  H   UNL     1     -20.021  -0.362   5.072  0.00  0.00    +0.000 HD
BRANCH  20  23
ATOM     23  C   UNL     1     -20.270  -1.252   7.014  0.00  0.00    +0.000 C 
ATOM     24  H   UNL     1     -19.532  -0.495   7.299  0.00  0.00    +0.000 HD
ATOM     25  H   UNL     1     -19.798  -2.239   7.054  0.00  0.00    +0.000 HD
BRANCH  23  27
ATOM     26  O   UNL     1     -22.017  -2.208   8.381  0.00  0.00    +0.000 OA
ATOM     27  C   UNL     1     -21.383  -1.221   8.030  0.00  0.00    +0.000 C 
BRANCH  27  28
ATOM     28  O   UNL     1     -21.614   0.026   8.514  0.00  0.00    +0.000 OA
ATOM     29  H   UNL     1     -21.031   0.694   8.096  0.00  0.00    +0.000 HD
ENDBRANCH  27  28
ENDBRANCH  23  27
ENDBRANCH  20  23
ENDBRANCH  17  20
ENDBRANCH   1  17
TORSDOF 9
ENDMDL
MODEL 5
REMARK VINA RESULT:    -4.302     13.804     15.179
REMARK INTER + INTRA:          -6.789
REMARK INTER:                  -6.091
REMARK INTRA:                  -0.698
REMARK UNBOUND:                -0.475
REMARK  Name = 8158
REMARK  9 active torsions:
REMARK  status: ('A' for Active; 'I' for Inactive)
REMARK    1  A    between atoms: O_1  and  C_11
REMARK    2  A    between atoms: C_3  and  C_4
REMARK    3  A    between atoms: C_3  and  C_5
REMARK    4  A    between atoms: C_4  and  C_6
REMARK    5  A    between atoms: C_5  and  C_7
REMARK    6  A    between atoms: C_6  and  C_8
REMARK    7  A    between atoms: C_7  and  C_9
REMARK    8  A    between atoms: C_8  and  C_10
REMARK    9  A    between atoms: C_9  and  C_11
REMARK                            x       y       z     vdW  Elec       q    Type
REMARK                         _______ _______ _______ _____ _____    ______ ____
ROOT
ATOM      1  C   UNL     1      -1.396   9.976 -10.217  0.00  0.00    +0.000 C 
ATOM      2  H   UNL     1      -1.422  11.027  -9.902  0.00  0.00    +0.000 HD
ATOM      3  H   UNL     1      -0.741   9.451  -9.512  0.00  0.00    +0.000 HD
ENDROOT
BRANCH   1   4
ATOM      4  C   UNL     1      -2.809   9.389 -10.121  0.00  0.00    +0.000 C 
ATOM      5  H   UNL     1      -3.519  10.197  -9.904  0.00  0.00    +0.000 HD
ATOM      6  H   UNL     1      -3.092   8.973 -11.097  0.00  0.00    +0.000 HD
BRANCH   4   7
ATOM      7  C   UNL     1      -2.944   8.299  -9.055  0.00  0.00    +0.000 C 
ATOM      8  H   UNL     1      -2.050   8.302  -8.419  0.00  0.00    +0.000 HD
ATOM      9  H   UNL     1      -3.795   8.536  -8.405  0.00  0.00    +0.000 HD
BRANCH   7  10
ATOM     10  C   UNL     1      -3.136   6.898  -9.643  0.00  0.00    +0.000 C 
ATOM     11  H   UNL     1      -3.746   6.298  -8.957  0.00  0.00    +0.000 HD
ATOM     12  H   UNL     1      -2.163   6.401  -9.721  0.00  0.00    +0.000 HD
BRANCH  10  13
ATOM     13  C   UNL     1      -3.796   6.899 -11.014  0.00  0.00    +0.000 C 
ATOM     14  H   UNL     1      -4.335   5.963 -11.188  0.00  0.00    +0.000 HD
ATOM     15  H   UNL     1      -3.041   7.011 -11.799  0.00  0.00    +0.000 HD
ATOM     16  H   UNL     1      -4.506   7.726 -11.105  0.00  0.00    +0.000 HD
ENDBRANCH  10  13
ENDBRANCH   7  10
ENDBRANCH   4   7
ENDBRANCH   1   4
BRANCH   1  17
ATOM     17  C   UNL     1      -0.794   9.887 -11.622  0.00  0.00    +0.000 C 
ATOM     18  H   UNL     1      -1.459  10.390 -12.335  0.00  0.00    +0.000 HD
ATOM     19  H   UNL     1       0.159  10.430 -11.640  0.00  0.00    +0.000 HD
BRANCH  17  20
ATOM     20  C   UNL     1      -0.554   8.446 -12.094  0.00  0.00    +0.000 C 
ATOM     21  H   UNL     1      -1.030   7.758 -11.382  0.00  0.00    +0.000 HD
ATOM     22  H   UNL     1       0.522   8.237 -12.043  0.00  0.00    +0.000 HD
BRANCH  20  23
ATOM     23  C   UNL     1      -1.056   8.132 -13.500  0.00  0.00    +0.000 C 
ATOM     24  H   UNL     1      -2.144   8.250 -13.537  0.00  0.00    +0.000 HD
ATOM     25  H   UNL     1      -0.802   7.098 -13.756  0.00  0.00    +0.000 HD
BRANCH  23  27
ATOM     26  O   UNL     1       0.743   9.092 -14.795  0.00  0.00    +0.000 OA
ATOM     27  C   UNL     1      -0.454   9.037 -14.545  0.00  0.00    +0.000 C 
BRANCH  27  28
ATOM     28  O   UNL     1      -1.385   9.793 -15.180  0.00  0.00    +0.000 OA
ATOM     29  H   UNL     1      -1.176   9.908 -16.132  0.00  0.00    +0.000 HD
ENDBRANCH  27  28
ENDBRANCH  23  27
ENDBRANCH  20  23
ENDBRANCH  17  20
ENDBRANCH   1  17
TORSDOF 9
ENDMDL
MODEL 6
REMARK VINA RESULT:    -4.262     13.397     14.903
REMARK INTER + INTRA:          -6.730
REMARK INTER:                  -6.464
REMARK INTRA:                  -0.266
REMARK UNBOUND:                -0.475
REMARK  Name = 8158
REMARK  9 active torsions:
REMARK  status: ('A' for Active; 'I' for Inactive)
REMARK    1  A    between atoms: O_1  and  C_11
REMARK    2  A    between atoms: C_3  and  C_4
REMARK    3  A    between atoms: C_3  and  C_5
REMARK    4  A    between atoms: C_4  and  C_6
REMARK    5  A    between atoms: C_5  and  C_7
REMARK    6  A    between atoms: C_6  and  C_8
REMARK    7  A    between atoms: C_7  and  C_9
REMARK    8  A    between atoms: C_8  and  C_10
REMARK    9  A    between atoms: C_9  and  C_11
REMARK                            x       y       z     vdW  Elec       q    Type
REMARK                         _______ _______ _______ _____ _____    ______ ____
ROOT
ATOM      1  C   UNL     1      -4.672   6.550 -10.008  0.00  0.00    +0.000 C 
ATOM      2  H   UNL     1      -5.316   7.352 -10.391  0.00  0.00    +0.000 HD
ATOM      3  H   UNL     1      -4.694   5.744 -10.752  0.00  0.00    +0.000 HD
ENDROOT
BRANCH   1   4
ATOM      4  C   UNL     1      -3.238   7.077  -9.883  0.00  0.00    +0.000 C 
ATOM      5  H   UNL     1      -2.551   6.226  -9.783  0.00  0.00    +0.000 HD
ATOM      6  H   UNL     1      -2.964   7.597 -10.810  0.00  0.00    +0.000 HD
BRANCH   4   7
ATOM      7  C   UNL     1      -3.039   8.027  -8.699  0.00  0.00    +0.000 C 
ATOM      8  H   UNL     1      -4.008   8.220  -8.223  0.00  0.00    +0.000 HD
ATOM      9  H   UNL     1      -2.409   7.537  -7.947  0.00  0.00    +0.000 HD
BRANCH   7  10
ATOM     10  C   UNL     1      -2.401   9.361  -9.096  0.00  0.00    +0.000 C 
ATOM     11  H   UNL     1      -1.313   9.238  -9.159  0.00  0.00    +0.000 HD
ATOM     12  H   UNL     1      -2.592  10.102  -8.312  0.00  0.00    +0.000 HD
BRANCH  10  13
ATOM     13  C   UNL     1      -2.910   9.910 -10.421  0.00  0.00    +0.000 C 
ATOM     14  H   UNL     1      -3.588   9.199 -10.902  0.00  0.00    +0.000 HD
ATOM     15  H   UNL     1      -2.073  10.098 -11.101  0.00  0.00    +0.000 HD
ATOM     16  H   UNL     1      -3.447  10.851 -10.273  0.00  0.00    +0.000 HD
ENDBRANCH  10  13
ENDBRANCH   7  10
ENDBRANCH   4   7
ENDBRANCH   1   4
BRANCH   1  17
ATOM     17  C   UNL     1      -5.247   6.030  -8.688  0.00  0.00    +0.000 C 
ATOM     18  H   UNL     1      -4.648   5.178  -8.343  0.00  0.00    +0.000 HD
ATOM     19  H   UNL     1      -5.157   6.811  -7.924  0.00  0.00    +0.000 HD
BRANCH  17  20
ATOM     20  C   UNL     1      -6.716   5.598  -8.789  0.00  0.00    +0.000 C 
ATOM     21  H   UNL     1      -7.028   5.649  -9.841  0.00  0.00    +0.000 HD
ATOM     22  H   UNL     1      -7.333   6.334  -8.256  0.00  0.00    +0.000 HD
BRANCH  20  23
ATOM     23  C   UNL     1      -7.023   4.206  -8.246  0.00  0.00    +0.000 C 
ATOM     24  H   UNL     1      -6.087   3.660  -8.084  0.00  0.00    +0.000 HD
ATOM     25  H   UNL     1      -7.632   3.656  -8.971  0.00  0.00    +0.000 HD
BRANCH  23  27
ATOM     26  O   UNL     1      -8.422   3.310  -6.493  0.00  0.00    +0.000 OA
ATOM     27  C   UNL     1      -7.770   4.246  -6.938  0.00  0.00    +0.000 C 
BRANCH  27  28
ATOM     28  O   UNL     1      -7.648   5.439  -6.303  0.00  0.00    +0.000 OA
ATOM     29  H   UNL     1      -8.494   5.726  -5.897  0.00  0.00    +0.000 HD
ENDBRANCH  27  28
ENDBRANCH  23  27
ENDBRANCH  20  23
ENDBRANCH  17  20
ENDBRANCH   1  17
TORSDOF 9
ENDMDL
MODEL 7
REMARK VINA RESULT:    -4.241     13.800     15.435
REMARK INTER + INTRA:          -6.699
REMARK INTER:                  -6.330
REMARK INTRA:                  -0.370
REMARK UNBOUND:                -0.475
REMARK  Name = 8158
REMARK  9 active torsions:
REMARK  status: ('A' for Active; 'I' for Inactive)
REMARK    1  A    between atoms: O_1  and  C_11
REMARK    2  A    between atoms: C_3  and  C_4
REMARK    3  A    between atoms: C_3  and  C_5
REMARK    4  A    between atoms: C_4  and  C_6
REMARK    5  A    between atoms: C_5  and  C_7
REMARK    6  A    between atoms: C_6  and  C_8
REMARK    7  A    between atoms: C_7  and  C_9
REMARK    8  A    between atoms: C_8  and  C_10
REMARK    9  A    between atoms: C_9  and  C_11
REMARK                            x       y       z     vdW  Elec       q    Type
REMARK                         _______ _______ _______ _____ _____    ______ ____
ROOT
ATOM      1  C   UNL     1      -9.544  10.983   6.288  0.00  0.00    +0.000 C 
ATOM      2  H   UNL     1      -9.951  11.724   6.987  0.00  0.00    +0.000 HD
ATOM      3  H   UNL     1     -10.379  10.338   5.988  0.00  0.00    +0.000 HD
ENDROOT
BRANCH   1   4
ATOM      4  C   UNL     1      -9.001  11.708   5.051  0.00  0.00    +0.000 C 
ATOM      5  H   UNL     1      -9.457  11.274   4.153  0.00  0.00    +0.000 HD
ATOM      6  H   UNL     1      -9.311  12.760   5.086  0.00  0.00    +0.000 HD
BRANCH   4   7
ATOM      7  C   UNL     1      -7.477  11.639   4.925  0.00  0.00    +0.000 C 
ATOM      8  H   UNL     1      -7.069  11.071   5.771  0.00  0.00    +0.000 HD
ATOM      9  H   UNL     1      -7.216  11.084   4.016  0.00  0.00    +0.000 HD
BRANCH   7  10
ATOM     10  C   UNL     1      -6.811  13.018   4.881  0.00  0.00    +0.000 C 
ATOM     11  H   UNL     1      -7.486  13.730   4.390  0.00  0.00    +0.000 HD
ATOM     12  H   UNL     1      -5.906  12.964   4.266  0.00  0.00    +0.000 HD
BRANCH  10  13
ATOM     13  C   UNL     1      -6.439  13.559   6.253  0.00  0.00    +0.000 C 
ATOM     14  H   UNL     1      -6.676  14.625   6.329  0.00  0.00    +0.000 HD
ATOM     15  H   UNL     1      -5.367  13.433   6.433  0.00  0.00    +0.000 HD
ATOM     16  H   UNL     1      -6.982  13.029   7.041  0.00  0.00    +0.000 HD
ENDBRANCH  10  13
ENDBRANCH   7  10
ENDBRANCH   4   7
ENDBRANCH   1   4
BRANCH   1  17
ATOM     17  C   UNL     1      -8.492  10.136   7.009  0.00  0.00    +0.000 C 
ATOM     18  H   UNL     1      -8.177   9.314   6.355  0.00  0.00    +0.000 HD
ATOM     19  H   UNL     1      -7.602  10.750   7.195  0.00  0.00    +0.000 HD
BRANCH  17  20
ATOM     20  C   UNL     1      -8.983   9.554   8.341  0.00  0.00    +0.000 C 
ATOM     21  H   UNL     1      -9.844   8.900   8.144  0.00  0.00    +0.000 HD
ATOM     22  H   UNL     1      -9.364  10.376   8.961  0.00  0.00    +0.000 HD
BRANCH  20  23
ATOM     23  C   UNL     1      -7.937   8.776   9.134  0.00  0.00    +0.000 C 
ATOM     24  H   UNL     1      -7.082   8.548   8.490  0.00  0.00    +0.000 HD
ATOM     25  H   UNL     1      -8.373   7.837   9.490  0.00  0.00    +0.000 HD
BRANCH  23  27
ATOM     26  O   UNL     1      -8.152  10.121  11.129  0.00  0.00    +0.000 OA
ATOM     27  C   UNL     1      -7.429   9.542  10.329  0.00  0.00    +0.000 C 
BRANCH  27  28
ATOM     28  O   UNL     1      -6.075   9.526  10.421  0.00  0.00    +0.000 OA
ATOM     29  H   UNL     1      -5.664   9.018   9.690  0.00  0.00    +0.000 HD
ENDBRANCH  27  28
ENDBRANCH  23  27
ENDBRANCH  20  23
ENDBRANCH  17  20
ENDBRANCH   1  17
TORSDOF 9
ENDMDL
MODEL 8
REMARK VINA RESULT:    -4.125     14.281     15.975
REMARK INTER + INTRA:          -6.530
REMARK INTER:                  -6.213
REMARK INTRA:                  -0.317
REMARK UNBOUND:                -0.475
REMARK  Name = 8158
REMARK  9 active torsions:
REMARK  status: ('A' for Active; 'I' for Inactive)
REMARK    1  A    between atoms: O_1  and  C_11
REMARK    2  A    between atoms: C_3  and  C_4
REMARK    3  A    between atoms: C_3  and  C_5
REMARK    4  A    between atoms: C_4  and  C_6
REMARK    5  A    between atoms: C_5  and  C_7
REMARK    6  A    between atoms: C_6  and  C_8
REMARK    7  A    between atoms: C_7  and  C_9
REMARK    8  A    between atoms: C_8  and  C_10
REMARK    9  A    between atoms: C_9  and  C_11
REMARK                            x       y       z     vdW  Elec       q    Type
REMARK                         _______ _______ _______ _____ _____    ______ ____
ROOT
ATOM      1  C   UNL     1      -7.992   5.558  -7.692  0.00  0.00    +0.000 C 
ATOM      2  H   UNL     1      -8.622   4.699  -7.433  0.00  0.00    +0.000 HD
ATOM      3  H   UNL     1      -8.490   6.079  -8.519  0.00  0.00    +0.000 HD
ENDROOT
BRANCH   1   4
ATOM      4  C   UNL     1      -7.909   6.500  -6.485  0.00  0.00    +0.000 C 
ATOM      5  H   UNL     1      -6.854   6.716  -6.271  0.00  0.00    +0.000 HD
ATOM      6  H   UNL     1      -8.381   7.457  -6.743  0.00  0.00    +0.000 HD
BRANCH   4   7
ATOM      7  C   UNL     1      -8.574   5.938  -5.227  0.00  0.00    +0.000 C 
ATOM      8  H   UNL     1      -8.295   6.554  -4.363  0.00  0.00    +0.000 HD
ATOM      9  H   UNL     1      -9.663   6.014  -5.331  0.00  0.00    +0.000 HD
BRANCH   7  10
ATOM     10  C   UNL     1      -8.199   4.480  -4.945  0.00  0.00    +0.000 C 
ATOM     11  H   UNL     1      -7.621   4.428  -4.014  0.00  0.00    +0.000 HD
ATOM     12  H   UNL     1      -7.546   4.113  -5.745  0.00  0.00    +0.000 HD
BRANCH  10  13
ATOM     13  C   UNL     1      -9.400   3.553  -4.830  0.00  0.00    +0.000 C 
ATOM     14  H   UNL     1     -10.147   3.966  -4.147  0.00  0.00    +0.000 HD
ATOM     15  H   UNL     1      -9.090   2.575  -4.447  0.00  0.00    +0.000 HD
ATOM     16  H   UNL     1      -9.871   3.403  -5.806  0.00  0.00    +0.000 HD
ENDBRANCH  10  13
ENDBRANCH   7  10
ENDBRANCH   4   7
ENDBRANCH   1   4
BRANCH   1  17
ATOM     17  C   UNL     1      -6.626   5.057  -8.167  0.00  0.00    +0.000 C 
ATOM     18  H   UNL     1      -5.979   4.887  -7.298  0.00  0.00    +0.000 HD
ATOM     19  H   UNL     1      -6.752   4.086  -8.663  0.00  0.00    +0.000 HD
BRANCH  17  20
ATOM     20  C   UNL     1      -5.922   6.021  -9.132  0.00  0.00    +0.000 C 
ATOM     21  H   UNL     1      -6.530   6.931  -9.228  0.00  0.00    +0.000 HD
ATOM     22  H   UNL     1      -5.903   5.564 -10.129  0.00  0.00    +0.000 HD
BRANCH  20  23
ATOM     23  C   UNL     1      -4.501   6.412  -8.737  0.00  0.00    +0.000 C 
ATOM     24  H   UNL     1      -4.019   5.574  -8.222  0.00  0.00    +0.000 HD
ATOM     25  H   UNL     1      -4.533   7.272  -8.060  0.00  0.00    +0.000 HD
BRANCH  23  27
ATOM     26  O   UNL     1      -4.070   6.844 -11.073  0.00  0.00    +0.000 OA
ATOM     27  C   UNL     1      -3.650   6.778  -9.926  0.00  0.00    +0.000 C 
BRANCH  27  28
ATOM     28  O   UNL     1      -2.358   7.024  -9.588  0.00  0.00    +0.000 OA
ATOM     29  H   UNL     1      -1.794   7.163 -10.378  0.00  0.00    +0.000 HD
ENDBRANCH  27  28
ENDBRANCH  23  27
ENDBRANCH  20  23
ENDBRANCH  17  20
ENDBRANCH   1  17
TORSDOF 9
ENDMDL
MODEL 9
REMARK VINA RESULT:    -4.014     13.651     15.214
REMARK INTER + INTRA:          -6.366
REMARK INTER:                  -5.663
REMARK INTRA:                  -0.703
REMARK UNBOUND:                -0.475
REMARK  Name = 8158
REMARK  9 active torsions:
REMARK  status: ('A' for Active; 'I' for Inactive)
REMARK    1  A    between atoms: O_1  and  C_11
REMARK    2  A    between atoms: C_3  and  C_4
REMARK    3  A    between atoms: C_3  and  C_5
REMARK    4  A    between atoms: C_4  and  C_6
REMARK    5  A    between atoms: C_5  and  C_7
REMARK    6  A    between atoms: C_6  and  C_8
REMARK    7  A    between atoms: C_7  and  C_9
REMARK    8  A    between atoms: C_8  and  C_10
REMARK    9  A    between atoms: C_9  and  C_11
REMARK                            x       y       z     vdW  Elec       q    Type
REMARK                         _______ _______ _______ _____ _____    ______ ____
ROOT
ATOM      1  C   UNL     1      -7.570  13.769   7.342  0.00  0.00    +0.000 C 
ATOM      2  H   UNL     1      -7.856  14.797   7.595  0.00  0.00    +0.000 HD
ATOM      3  H   UNL     1      -8.319  13.399   6.631  0.00  0.00    +0.000 HD
ENDROOT
BRANCH   1   4
ATOM      4  C   UNL     1      -6.197  13.784   6.661  0.00  0.00    +0.000 C 
ATOM      5  H   UNL     1      -5.759  14.786   6.758  0.00  0.00    +0.000 HD
ATOM      6  H   UNL     1      -5.526  13.094   7.190  0.00  0.00    +0.000 HD
BRANCH   4   7
ATOM      7  C   UNL     1      -6.247  13.397   5.181  0.00  0.00    +0.000 C 
ATOM      8  H   UNL     1      -6.115  14.296   4.567  0.00  0.00    +0.000 HD
ATOM      9  H   UNL     1      -5.405  12.732   4.954  0.00  0.00    +0.000 HD
BRANCH   7  10
ATOM     10  C   UNL     1      -7.554  12.704   4.781  0.00  0.00    +0.000 C 
ATOM     11  H   UNL     1      -7.979  13.209   3.905  0.00  0.00    +0.000 HD
ATOM     12  H   UNL     1      -8.282  12.809   5.593  0.00  0.00    +0.000 HD
BRANCH  10  13
ATOM     13  C   UNL     1      -7.387  11.226   4.462  0.00  0.00    +0.000 C 
ATOM     14  H   UNL     1      -6.481  10.826   4.929  0.00  0.00    +0.000 HD
ATOM     15  H   UNL     1      -7.309  11.077   3.381  0.00  0.00    +0.000 HD
ATOM     16  H   UNL     1      -8.243  10.650   4.825  0.00  0.00    +0.000 HD
ENDBRANCH  10  13
ENDBRANCH   7  10
ENDBRANCH   4   7
ENDBRANCH   1   4
BRANCH   1  17
ATOM     17  C   UNL     1      -7.613  12.909   8.607  0.00  0.00    +0.000 C 
ATOM     18  H   UNL     1      -6.673  13.028   9.159  0.00  0.00    +0.000 HD
ATOM     19  H   UNL     1      -8.413  13.273   9.263  0.00  0.00    +0.000 HD
BRANCH  17  20
ATOM     20  C   UNL     1      -7.840  11.417   8.325  0.00  0.00    +0.000 C 
ATOM     21  H   UNL     1      -7.707  10.857   9.260  0.00  0.00    +0.000 HD
ATOM     22  H   UNL     1      -7.051  11.066   7.648  0.00  0.00    +0.000 HD
BRANCH  20  23
ATOM     23  C   UNL     1      -9.200  11.070   7.725  0.00  0.00    +0.000 C 
ATOM     24  H   UNL     1      -9.293  11.529   6.736  0.00  0.00    +0.000 HD
ATOM     25  H   UNL     1      -9.994  11.457   8.372  0.00  0.00    +0.000 HD
BRANCH  23  27
ATOM     26  O   UNL     1      -8.495   8.763   7.610  0.00  0.00    +0.000 OA
ATOM     27  C   UNL     1      -9.402   9.584   7.570  0.00  0.00    +0.000 C 
BRANCH  27  28
ATOM     28  O   UNL     1     -10.702   9.251   7.373  0.00  0.00    +0.000 OA
ATOM     29  H   UNL     1     -10.817   8.667   6.593  0.00  0.00    +0.000 HD
ENDBRANCH  27  28
ENDBRANCH  23  27
ENDBRANCH  20  23
ENDBRANCH  17  20
ENDBRANCH   1  17
TORSDOF 9
ENDMDL
MODEL 10
REMARK VINA RESULT:    -3.894     14.368     16.195
REMARK INTER + INTRA:          -6.190
REMARK INTER:                  -5.714
REMARK INTRA:                  -0.475
REMARK UNBOUND:                -0.475
REMARK  Name = 8158
REMARK  9 active torsions:
REMARK  status: ('A' for Active; 'I' for Inactive)
REMARK    1  A    between atoms: O_1  and  C_11
REMARK    2  A    between atoms: C_3  and  C_4
REMARK    3  A    between atoms: C_3  and  C_5
REMARK    4  A    between atoms: C_4  and  C_6
REMARK    5  A    between atoms: C_5  and  C_7
REMARK    6  A    between atoms: C_6  and  C_8
REMARK    7  A    between atoms: C_7  and  C_9
REMARK    8  A    between atoms: C_8  and  C_10
REMARK    9  A    between atoms: C_9  and  C_11
REMARK                            x       y       z     vdW  Elec       q    Type
REMARK                         _______ _______ _______ _____ _____    ______ ____
ROOT
ATOM      1  C   UNL     1      -8.096  11.563   6.999  0.00  0.00    +0.000 C 
ATOM      2  H   UNL     1      -7.036  11.659   7.264  0.00  0.00    +0.000 HD
ATOM      3  H   UNL     1      -8.540  12.561   7.101  0.00  0.00    +0.000 HD
ENDROOT
BRANCH   1   4
ATOM      4  C   UNL     1      -8.209  11.111   5.539  0.00  0.00    +0.000 C 
ATOM      5  H   UNL     1      -8.068  10.023   5.488  0.00  0.00    +0.000 HD
ATOM      6  H   UNL     1      -9.226  11.314   5.177  0.00  0.00    +0.000 HD
BRANCH   4   7
ATOM      7  C   UNL     1      -7.202  11.794   4.610  0.00  0.00    +0.000 C 
ATOM      8  H   UNL     1      -6.383  11.098   4.390  0.00  0.00    +0.000 HD
ATOM      9  H   UNL     1      -7.690  12.020   3.655  0.00  0.00    +0.000 HD
BRANCH   7  10
ATOM     10  C   UNL     1      -6.620  13.084   5.195  0.00  0.00    +0.000 C 
ATOM     11  H   UNL     1      -5.579  13.194   4.866  0.00  0.00    +0.000 HD
ATOM     12  H   UNL     1      -6.601  13.011   6.288  0.00  0.00    +0.000 HD
BRANCH  10  13
ATOM     13  C   UNL     1      -7.394  14.334   4.802  0.00  0.00    +0.000 C 
ATOM     14  H   UNL     1      -8.467  14.193   4.959  0.00  0.00    +0.000 HD
ATOM     15  H   UNL     1      -7.230  14.566   3.745  0.00  0.00    +0.000 HD
ATOM     16  H   UNL     1      -7.070  15.195   5.394  0.00  0.00    +0.000 HD
ENDBRANCH  10  13
ENDBRANCH   7  10
ENDBRANCH   4   7
ENDBRANCH   1   4
BRANCH   1  17
ATOM     17  C   UNL     1      -8.776  10.610   7.986  0.00  0.00    +0.000 C 
ATOM     18  H   UNL     1      -8.038  10.256   8.716  0.00  0.00    +0.000 HD
ATOM     19  H   UNL     1      -9.540  11.160   8.548  0.00  0.00    +0.000 HD
BRANCH  17  20
ATOM     20  C   UNL     1      -9.432   9.397   7.311  0.00  0.00    +0.000 C 
ATOM     21  H   UNL     1      -8.967   8.482   7.702  0.00  0.00    +0.000 HD
ATOM     22  H   UNL     1      -9.194   9.423   6.240  0.00  0.00    +0.000 HD
BRANCH  20  23
ATOM     23  C   UNL     1     -10.945   9.299   7.482  0.00  0.00    +0.000 C 
ATOM     24  H   UNL     1     -11.184   9.090   8.530  0.00  0.00    +0.000 HD
ATOM     25  H   UNL     1     -11.330   8.483   6.861  0.00  0.00    +0.000 HD
BRANCH  23  27
ATOM     26  O   UNL     1     -11.678  11.013   5.947  0.00  0.00    +0.000 OA
ATOM     27  C   UNL     1     -11.656  10.568   7.087  0.00  0.00    +0.000 C 
BRANCH  27  28
ATOM     28  O   UNL     1     -12.268  11.172   8.136  0.00  0.00    +0.000 OA
ATOM     29  H   UNL     1     -11.641  11.710   8.666  0.00  0.00    +0.000 HD
ENDBRANCH  27  28
ENDBRANCH  23  27
ENDBRANCH  20  23
ENDBRANCH  17  20
ENDBRANCH   1  17
TORSDOF 9
ENDMDL
