MODEL 1
REMARK VINA RESULT:    -4.260      0.000      0.000
REMARK INTER + INTRA:          -6.244
REMARK INTER:                  -5.781
REMARK INTRA:                  -0.463
REMARK UNBOUND:                -0.365
REMARK  Name = 454
REMARK  7 active torsions:
REMARK  status: ('A' for Active; 'I' for Inactive)
REMARK    1  A    between atoms: C_2  and  C_3
REMARK    2  A    between atoms: C_2  and  C_4
REMARK    3  A    between atoms: C_3  and  C_5
REMARK    4  A    between atoms: C_4  and  C_6
REMARK    5  A    between atoms: C_5  and  C_7
REMARK    6  A    between atoms: C_6  and  C_8
REMARK    7  A    between atoms: C_7  and  C_9
REMARK                            x       y       z     vdW  Elec       q    Type
REMARK                         _______ _______ _______ _____ _____    ______ ____
ROOT
ATOM      1  C   UNL     1      -3.025   6.698  -9.759  0.00  0.00    +0.000 C 
ATOM      2  H   UNL     1      -3.277   5.739  -9.291  0.00  0.00    +0.000 HD
ATOM      3  H   UNL     1      -1.956   6.668 -10.005  0.00  0.00    +0.000 HD
ENDROOT
BRANCH   1   4
ATOM      4  C   UNL     1      -3.836   6.870 -11.045  0.00  0.00    +0.000 C 
ATOM      5  H   UNL     1      -4.553   7.691 -10.917  0.00  0.00    +0.000 HD
ATOM      6  H   UNL     1      -4.424   5.961 -11.222  0.00  0.00    +0.000 HD
BRANCH   4   7
ATOM      7  C   UNL     1      -2.971   7.154 -12.275  0.00  0.00    +0.000 C 
ATOM      8  H   UNL     1      -3.282   6.497 -13.098  0.00  0.00    +0.000 HD
ATOM      9  H   UNL     1      -3.160   8.180 -12.613  0.00  0.00    +0.000 HD
BRANCH   7  10
ATOM     10  C   UNL     1      -1.477   6.976 -12.020  0.00  0.00    +0.000 C 
ATOM     11  H   UNL     1      -1.273   6.952 -10.944  0.00  0.00    +0.000 HD
ATOM     12  H   UNL     1      -1.127   6.034 -12.455  0.00  0.00    +0.000 HD
BRANCH  10  14
ATOM     13  O   UNL     1      -0.308   9.104 -12.010  0.00  0.00    +0.000 OA
ATOM     14  C   UNL     1      -0.651   8.092 -12.613  0.00  0.00    +0.000 C 
ATOM     15  H   UNL     1      -0.353   7.942 -13.664  0.00  0.00    +0.000 HD
ENDBRANCH  10  14
ENDBRANCH   7  10
ENDBRANCH   4   7
ENDBRANCH   1   4
BRANCH   1  16
ATOM     16  C   UNL     1      -3.295   7.839  -8.776  0.00  0.00    +0.000 C 
ATOM     17  H   UNL     1      -3.200   7.470  -7.748  0.00  0.00    +0.000 HD
ATOM     18  H   UNL     1      -4.327   8.191  -8.898  0.00  0.00    +0.000 HD
BRANCH  16  19
ATOM     19  C   UNL     1      -2.330   9.004  -8.996  0.00  0.00    +0.000 C 
ATOM     20  H   UNL     1      -2.109   9.488  -8.037  0.00  0.00    +0.000 HD
ATOM     21  H   UNL     1      -1.381   8.630  -9.397  0.00  0.00    +0.000 HD
BRANCH  19  22
ATOM     22  C   UNL     1      -2.906  10.033  -9.955  0.00  0.00    +0.000 C 
ATOM     23  H   UNL     1      -2.115  10.664 -10.372  0.00  0.00    +0.000 HD
ATOM     24  H   UNL     1      -3.618  10.680  -9.434  0.00  0.00    +0.000 HD
ATOM     25  H   UNL     1      -3.431   9.546 -10.783  0.00  0.00    +0.000 HD
ENDBRANCH  19  22
ENDBRANCH  16  19
ENDBRANCH   1  16
TORSDOF 7
ENDMDL
MODEL 2
REMARK VINA RESULT:    -4.162      1.484      2.787
REMARK INTER + INTRA:          -6.109
REMARK INTER:                  -5.791
REMARK INTRA:                  -0.318
REMARK UNBOUND:                -0.365
REMARK  Name = 454
REMARK  7 active torsions:
REMARK  status: ('A' for Active; 'I' for Inactive)
REMARK    1  A    between atoms: C_2  and  C_3
REMARK    2  A    between atoms: C_2  and  C_4
REMARK    3  A    between atoms: C_3  and  C_5
REMARK    4  A    between atoms: C_4  and  C_6
REMARK    5  A    between atoms: C_5  and  C_7
REMARK    6  A    between atoms: C_6  and  C_8
REMARK    7  A    between atoms: C_7  and  C_9
REMARK                            x       y       z     vdW  Elec       q    Type
REMARK                         _______ _______ _______ _____ _____    ______ ____
ROOT
ATOM      1  C   UNL     1      -2.667   9.770 -10.109  0.00  0.00    +0.000 C 
ATOM      2  H   UNL     1      -3.213  10.691  -9.874  0.00  0.00    +0.000 HD
ATOM      3  H   UNL     1      -3.209   9.269 -10.920  0.00  0.00    +0.000 HD
ENDROOT
BRANCH   1   4
ATOM      4  C   UNL     1      -1.253  10.118 -10.583  0.00  0.00    +0.000 C 
ATOM      5  H   UNL     1      -0.532   9.441 -10.108  0.00  0.00    +0.000 HD
ATOM      6  H   UNL     1      -1.003  11.133 -10.248  0.00  0.00    +0.000 HD
BRANCH   4   7
ATOM      7  C   UNL     1      -1.085  10.036 -12.101  0.00  0.00    +0.000 C 
ATOM      8  H   UNL     1      -2.073  10.060 -12.579  0.00  0.00    +0.000 HD
ATOM      9  H   UNL     1      -0.554  10.931 -12.449  0.00  0.00    +0.000 HD
BRANCH   7  10
ATOM     10  C   UNL     1      -0.329   8.793 -12.561  0.00  0.00    +0.000 C 
ATOM     11  H   UNL     1       0.579   8.654 -11.963  0.00  0.00    +0.000 HD
ATOM     12  H   UNL     1      -0.955   7.902 -12.445  0.00  0.00    +0.000 HD
BRANCH  10  14
ATOM     13  O   UNL     1       0.873   9.704 -14.466  0.00  0.00    +0.000 OA
ATOM     14  C   UNL     1       0.092   8.874 -14.009  0.00  0.00    +0.000 C 
ATOM     15  H   UNL     1      -0.355   8.109 -14.666  0.00  0.00    +0.000 HD
ENDBRANCH  10  14
ENDBRANCH   7  10
ENDBRANCH   4   7
ENDBRANCH   1   4
BRANCH   1  16
ATOM     16  C   UNL     1      -2.631   8.863  -8.877  0.00  0.00    +0.000 C 
ATOM     17  H   UNL     1      -3.101   9.375  -8.029  0.00  0.00    +0.000 HD
ATOM     18  H   UNL     1      -1.588   8.666  -8.597  0.00  0.00    +0.000 HD
BRANCH  16  19
ATOM     19  C   UNL     1      -3.346   7.539  -9.139  0.00  0.00    +0.000 C 
ATOM     20  H   UNL     1      -3.236   6.879  -8.270  0.00  0.00    +0.000 HD
ATOM     21  H   UNL     1      -4.419   7.716  -9.278  0.00  0.00    +0.000 HD
BRANCH  19  22
ATOM     22  C   UNL     1      -2.795   6.840 -10.371  0.00  0.00    +0.000 C 
ATOM     23  H   UNL     1      -2.974   5.761 -10.322  0.00  0.00    +0.000 HD
ATOM     24  H   UNL     1      -1.715   7.001 -10.447  0.00  0.00    +0.000 HD
ATOM     25  H   UNL     1      -3.261   7.225 -11.282  0.00  0.00    +0.000 HD
ENDBRANCH  19  22
ENDBRANCH  16  19
ENDBRANCH   1  16
TORSDOF 7
ENDMDL
MODEL 3
REMARK VINA RESULT:    -4.115      1.032      2.923
REMARK INTER + INTRA:          -6.045
REMARK INTER:                  -5.538
REMARK INTRA:                  -0.507
REMARK UNBOUND:                -0.365
REMARK  Name = 454
REMARK  7 active torsions:
REMARK  status: ('A' for Active; 'I' for Inactive)
REMARK    1  A    between atoms: C_2  and  C_3
REMARK    2  A    between atoms: C_2  and  C_4
REMARK    3  A    between atoms: C_3  and  C_5
REMARK    4  A    between atoms: C_4  and  C_6
REMARK    5  A    between atoms: C_5  and  C_7
REMARK    6  A    between atoms: C_6  and  C_8
REMARK    7  A    between atoms: C_7  and  C_9
REMARK                            x       y       z     vdW  Elec       q    Type
REMARK                         _______ _______ _______ _____ _____    ______ ____
ROOT
ATOM      1  C   UNL     1      -2.955   7.012  -9.705  0.00  0.00    +0.000 C 
ATOM      2  H   UNL     1      -2.083   7.165 -10.351  0.00  0.00    +0.000 HD
ATOM      3  H   UNL     1      -2.774   6.098  -9.126  0.00  0.00    +0.000 HD
ENDROOT
BRANCH   1   4
ATOM      4  C   UNL     1      -3.100   8.197  -8.748  0.00  0.00    +0.000 C 
ATOM      5  H   UNL     1      -2.414   8.069  -7.901  0.00  0.00    +0.000 HD
ATOM      6  H   UNL     1      -4.116   8.202  -8.334  0.00  0.00    +0.000 HD
BRANCH   4   7
ATOM      7  C   UNL     1      -2.823   9.549  -9.410  0.00  0.00    +0.000 C 
ATOM      8  H   UNL     1      -3.480   9.669 -10.281  0.00  0.00    +0.000 HD
ATOM      9  H   UNL     1      -3.092  10.349  -8.709  0.00  0.00    +0.000 HD
BRANCH   7  10
ATOM     10  C   UNL     1      -1.370   9.726  -9.841  0.00  0.00    +0.000 C 
ATOM     11  H   UNL     1      -0.906  10.554  -9.293  0.00  0.00    +0.000 HD
ATOM     12  H   UNL     1      -0.798   8.816  -9.635  0.00  0.00    +0.000 HD
BRANCH  10  14
ATOM     13  O   UNL     1      -0.338   9.608 -12.037  0.00  0.00    +0.000 OA
ATOM     14  C   UNL     1      -1.237  10.029 -11.315  0.00  0.00    +0.000 C 
ATOM     15  H   UNL     1      -2.029  10.675 -11.730  0.00  0.00    +0.000 HD
ENDBRANCH  10  14
ENDBRANCH   7  10
ENDBRANCH   4   7
ENDBRANCH   1   4
BRANCH   1  16
ATOM     16  C   UNL     1      -4.209   6.836 -10.564  0.00  0.00    +0.000 C 
ATOM     17  H   UNL     1      -5.015   7.471 -10.175  0.00  0.00    +0.000 HD
ATOM     18  H   UNL     1      -4.557   5.798 -10.497  0.00  0.00    +0.000 HD
BRANCH  16  19
ATOM     19  C   UNL     1      -3.937   7.190 -12.026  0.00  0.00    +0.000 C 
ATOM     20  H   UNL     1      -4.658   6.675 -12.672  0.00  0.00    +0.000 HD
ATOM     21  H   UNL     1      -4.074   8.266 -12.180  0.00  0.00    +0.000 HD
BRANCH  19  22
ATOM     22  C   UNL     1      -2.528   6.802 -12.441  0.00  0.00    +0.000 C 
ATOM     23  H   UNL     1      -2.339   7.071 -13.485  0.00  0.00    +0.000 HD
ATOM     24  H   UNL     1      -2.385   5.722 -12.338  0.00  0.00    +0.000 HD
ATOM     25  H   UNL     1      -1.783   7.305 -11.817  0.00  0.00    +0.000 HD
ENDBRANCH  19  22
ENDBRANCH  16  19
ENDBRANCH   1  16
TORSDOF 7
ENDMDL
MODEL 4
REMARK VINA RESULT:    -4.040      1.482      2.904
REMARK INTER + INTRA:          -5.940
REMARK INTER:                  -5.671
REMARK INTRA:                  -0.270
REMARK UNBOUND:                -0.365
REMARK  Name = 454
REMARK  7 active torsions:
REMARK  status: ('A' for Active; 'I' for Inactive)
REMARK    1  A    between atoms: C_2  and  C_3
REMARK    2  A    between atoms: C_2  and  C_4
REMARK    3  A    between atoms: C_3  and  C_5
REMARK    4  A    between atoms: C_4  and  C_6
REMARK    5  A    between atoms: C_5  and  C_7
REMARK    6  A    between atoms: C_6  and  C_8
REMARK    7  A    between atoms: C_7  and  C_9
REMARK                            x       y       z     vdW  Elec       q    Type
REMARK                         _______ _______ _______ _____ _____    ______ ____
ROOT
ATOM      1  C   UNL     1      -2.735   8.646  -9.070  0.00  0.00    +0.000 C 
ATOM      2  H   UNL     1      -1.754   8.436  -8.628  0.00  0.00    +0.000 HD
ATOM      3  H   UNL     1      -3.405   8.930  -8.250  0.00  0.00    +0.000 HD
ENDROOT
BRANCH   1   4
ATOM      4  C   UNL     1      -2.616   9.810 -10.055  0.00  0.00    +0.000 C 
ATOM      5  H   UNL     1      -3.078  10.705  -9.620  0.00  0.00    +0.000 HD
ATOM      6  H   UNL     1      -3.184   9.570 -10.963  0.00  0.00    +0.000 HD
BRANCH   4   7
ATOM      7  C   UNL     1      -1.171  10.135 -10.440  0.00  0.00    +0.000 C 
ATOM      8  H   UNL     1      -0.924  11.149 -10.100  0.00  0.00    +0.000 HD
ATOM      9  H   UNL     1      -0.499   9.457  -9.900  0.00  0.00    +0.000 HD
BRANCH   7  10
ATOM     10  C   UNL     1      -0.903  10.023 -11.938  0.00  0.00    +0.000 C 
ATOM     11  H   UNL     1      -1.841  10.086 -12.501  0.00  0.00    +0.000 HD
ATOM     12  H   UNL     1      -0.250  10.836 -12.270  0.00  0.00    +0.000 HD
BRANCH  10  14
ATOM     13  O   UNL     1      -0.784   7.620 -12.271  0.00  0.00    +0.000 OA
ATOM     14  C   UNL     1      -0.239   8.719 -12.311  0.00  0.00    +0.000 C 
ATOM     15  H   UNL     1       0.809   8.809 -12.641  0.00  0.00    +0.000 HD
ENDBRANCH  10  14
ENDBRANCH   7  10
ENDBRANCH   4   7
ENDBRANCH   1   4
BRANCH   1  16
ATOM     16  C   UNL     1      -3.270   7.388  -9.758  0.00  0.00    +0.000 C 
ATOM     17  H   UNL     1      -2.447   6.864 -10.259  0.00  0.00    +0.000 HD
ATOM     18  H   UNL     1      -3.990   7.675 -10.535  0.00  0.00    +0.000 HD
BRANCH  16  19
ATOM     19  C   UNL     1      -3.945   6.450  -8.759  0.00  0.00    +0.000 C 
ATOM     20  H   UNL     1      -3.388   5.507  -8.701  0.00  0.00    +0.000 HD
ATOM     21  H   UNL     1      -3.930   6.898  -7.759  0.00  0.00    +0.000 HD
BRANCH  19  22
ATOM     22  C   UNL     1      -5.384   6.158  -9.152  0.00  0.00    +0.000 C 
ATOM     23  H   UNL     1      -5.569   5.080  -9.186  0.00  0.00    +0.000 HD
ATOM     24  H   UNL     1      -5.599   6.571 -10.142  0.00  0.00    +0.000 HD
ATOM     25  H   UNL     1      -6.083   6.604  -8.438  0.00  0.00    +0.000 HD
ENDBRANCH  19  22
ENDBRANCH  16  19
ENDBRANCH   1  16
TORSDOF 7
ENDMDL
MODEL 5
REMARK VINA RESULT:    -3.968      1.741      3.866
REMARK INTER + INTRA:          -5.842
REMARK INTER:                  -5.505
REMARK INTRA:                  -0.337
REMARK UNBOUND:                -0.365
REMARK  Name = 454
REMARK  7 active torsions:
REMARK  status: ('A' for Active; 'I' for Inactive)
REMARK    1  A    between atoms: C_2  and  C_3
REMARK    2  A    between atoms: C_2  and  C_4
REMARK    3  A    between atoms: C_3  and  C_5
REMARK    4  A    between atoms: C_4  and  C_6
REMARK    5  A    between atoms: C_5  and  C_7
REMARK    6  A    between atoms: C_6  and  C_8
REMARK    7  A    between atoms: C_7  and  C_9
REMARK                            x       y       z     vdW  Elec       q    Type
REMARK                         _______ _______ _______ _____ _____    ______ ____
ROOT
ATOM      1  C   UNL     1      -1.215  10.066 -10.284  0.00  0.00    +0.000 C 
ATOM      2  H   UNL     1      -0.997  11.048  -9.848  0.00  0.00    +0.000 HD
ATOM      3  H   UNL     1      -0.538   9.344  -9.811  0.00  0.00    +0.000 HD
ENDROOT
BRANCH   1   4
ATOM      4  C   UNL     1      -2.664   9.679  -9.977  0.00  0.00    +0.000 C 
ATOM      5  H   UNL     1      -3.108   9.202 -10.860  0.00  0.00    +0.000 HD
ATOM      6  H   UNL     1      -3.244  10.589  -9.783  0.00  0.00    +0.000 HD
BRANCH   4   7
ATOM      7  C   UNL     1      -2.800   8.734  -8.781  0.00  0.00    +0.000 C 
ATOM      8  H   UNL     1      -1.813   8.580  -8.325  0.00  0.00    +0.000 HD
ATOM      9  H   UNL     1      -3.420   9.217  -8.016  0.00  0.00    +0.000 HD
BRANCH   7  10
ATOM     10  C   UNL     1      -3.408   7.382  -9.143  0.00  0.00    +0.000 C 
ATOM     11  H   UNL     1      -3.287   6.674  -8.316  0.00  0.00    +0.000 HD
ATOM     12  H   UNL     1      -4.478   7.489  -9.348  0.00  0.00    +0.000 HD
BRANCH  10  14
ATOM     13  O   UNL     1      -3.308   6.655 -11.458  0.00  0.00    +0.000 OA
ATOM     14  C   UNL     1      -2.766   6.766 -10.363  0.00  0.00    +0.000 C 
ATOM     15  H   UNL     1      -1.733   6.408 -10.213  0.00  0.00    +0.000 HD
ENDBRANCH  10  14
ENDBRANCH   7  10
ENDBRANCH   4   7
ENDBRANCH   1   4
BRANCH   1  16
ATOM     16  C   UNL     1      -0.957  10.101 -11.792  0.00  0.00    +0.000 C 
ATOM     17  H   UNL     1      -0.305  10.948 -12.034  0.00  0.00    +0.000 HD
ATOM     18  H   UNL     1      -1.905  10.261 -12.321  0.00  0.00    +0.000 HD
BRANCH  16  19
ATOM     19  C   UNL     1      -0.315   8.802 -12.278  0.00  0.00    +0.000 C 
ATOM     20  H   UNL     1       0.777   8.890 -12.236  0.00  0.00    +0.000 HD
ATOM     21  H   UNL     1      -0.600   7.975 -11.616  0.00  0.00    +0.000 HD
BRANCH  19  22
ATOM     22  C   UNL     1      -0.736   8.469 -13.700  0.00  0.00    +0.000 C 
ATOM     23  H   UNL     1       0.006   7.829 -14.188  0.00  0.00    +0.000 HD
ATOM     24  H   UNL     1      -0.836   9.385 -14.290  0.00  0.00    +0.000 HD
ATOM     25  H   UNL     1      -1.699   7.950 -13.712  0.00  0.00    +0.000 HD
ENDBRANCH  19  22
ENDBRANCH  16  19
ENDBRANCH   1  16
TORSDOF 7
ENDMDL
MODEL 6
REMARK VINA RESULT:    -3.957     26.373     27.127
REMARK INTER + INTRA:          -5.826
REMARK INTER:                  -5.600
REMARK INTRA:                  -0.226
REMARK UNBOUND:                -0.365
REMARK  Name = 454
REMARK  7 active torsions:
REMARK  status: ('A' for Active; 'I' for Inactive)
REMARK    1  A    between atoms: C_2  and  C_3
REMARK    2  A    between atoms: C_2  and  C_4
REMARK    3  A    between atoms: C_3  and  C_5
REMARK    4  A    between atoms: C_4  and  C_6
REMARK    5  A    between atoms: C_5  and  C_7
REMARK    6  A    between atoms: C_6  and  C_8
REMARK    7  A    between atoms: C_7  and  C_9
REMARK                            x       y       z     vdW  Elec       q    Type
REMARK                         _______ _______ _______ _____ _____    ______ ____
ROOT
ATOM      1  C   UNL     1     -20.887  -2.599   4.156  0.00  0.00    +0.000 C 
ATOM      2  H   UNL     1     -21.594  -2.902   3.374  0.00  0.00    +0.000 HD
ATOM      3  H   UNL     1     -19.997  -2.204   3.653  0.00  0.00    +0.000 HD
ENDROOT
BRANCH   1   4
ATOM      4  C   UNL     1     -21.514  -1.500   5.016  0.00  0.00    +0.000 C 
ATOM      5  H   UNL     1     -22.062  -1.956   5.850  0.00  0.00    +0.000 HD
ATOM      6  H   UNL     1     -22.251  -0.952   4.415  0.00  0.00    +0.000 HD
BRANCH   4   7
ATOM      7  C   UNL     1     -20.491  -0.510   5.578  0.00  0.00    +0.000 C 
ATOM      8  H   UNL     1     -19.583  -0.537   4.961  0.00  0.00    +0.000 HD
ATOM      9  H   UNL     1     -20.894   0.506   5.489  0.00  0.00    +0.000 HD
BRANCH   7  10
ATOM     10  C   UNL     1     -20.123  -0.780   7.034  0.00  0.00    +0.000 C 
ATOM     11  H   UNL     1     -19.398  -1.599   7.101  0.00  0.00    +0.000 HD
ATOM     12  H   UNL     1     -19.675   0.111   7.485  0.00  0.00    +0.000 HD
BRANCH  10  14
ATOM     13  O   UNL     1     -21.918  -0.409   8.628  0.00  0.00    +0.000 OA
ATOM     14  C   UNL     1     -21.319  -1.167   7.871  0.00  0.00    +0.000 C 
ATOM     15  H   UNL     1     -21.645  -2.215   7.759  0.00  0.00    +0.000 HD
ENDBRANCH  10  14
ENDBRANCH   7  10
ENDBRANCH   4   7
ENDBRANCH   1   4
BRANCH   1  16
ATOM     16  C   UNL     1     -20.503  -3.814   5.003  0.00  0.00    +0.000 C 
ATOM     17  H   UNL     1     -21.359  -4.120   5.618  0.00  0.00    +0.000 HD
ATOM     18  H   UNL     1     -19.693  -3.541   5.691  0.00  0.00    +0.000 HD
BRANCH  16  19
ATOM     19  C   UNL     1     -20.055  -4.985   4.128  0.00  0.00    +0.000 C 
ATOM     20  H   UNL     1     -20.833  -5.757   4.114  0.00  0.00    +0.000 HD
ATOM     21  H   UNL     1     -19.916  -4.645   3.095  0.00  0.00    +0.000 HD
BRANCH  19  22
ATOM     22  C   UNL     1     -18.756  -5.592   4.632  0.00  0.00    +0.000 C 
ATOM     23  H   UNL     1     -18.084  -4.817   5.015  0.00  0.00    +0.000 HD
ATOM     24  H   UNL     1     -18.241  -6.115   3.819  0.00  0.00    +0.000 HD
ATOM     25  H   UNL     1     -18.944  -6.312   5.434  0.00  0.00    +0.000 HD
ENDBRANCH  19  22
ENDBRANCH  16  19
ENDBRANCH   1  16
TORSDOF 7
ENDMDL
MODEL 7
REMARK VINA RESULT:    -3.848     17.452     18.841
REMARK INTER + INTRA:          -5.676
REMARK INTER:                  -5.265
REMARK INTRA:                  -0.411
REMARK UNBOUND:                -0.365
REMARK  Name = 454
REMARK  7 active torsions:
REMARK  status: ('A' for Active; 'I' for Inactive)
REMARK    1  A    between atoms: C_2  and  C_3
REMARK    2  A    between atoms: C_2  and  C_4
REMARK    3  A    between atoms: C_3  and  C_5
REMARK    4  A    between atoms: C_4  and  C_6
REMARK    5  A    between atoms: C_5  and  C_7
REMARK    6  A    between atoms: C_6  and  C_8
REMARK    7  A    between atoms: C_7  and  C_9
REMARK                            x       y       z     vdW  Elec       q    Type
REMARK                         _______ _______ _______ _____ _____    ______ ____
ROOT
ATOM      1  C   UNL     1      -7.275  13.123   4.712  0.00  0.00    +0.000 C 
ATOM      2  H   UNL     1      -7.197  13.408   3.656  0.00  0.00    +0.000 HD
ATOM      3  H   UNL     1      -8.211  13.547   5.094  0.00  0.00    +0.000 HD
ENDROOT
BRANCH   1   4
ATOM      4  C   UNL     1      -7.324  11.597   4.829  0.00  0.00    +0.000 C 
ATOM      5  H   UNL     1      -6.443  11.245   5.380  0.00  0.00    +0.000 HD
ATOM      6  H   UNL     1      -7.266  11.159   3.825  0.00  0.00    +0.000 HD
BRANCH   4   7
ATOM      7  C   UNL     1      -8.585  11.083   5.528  0.00  0.00    +0.000 C 
ATOM      8  H   UNL     1      -9.420  11.764   5.320  0.00  0.00    +0.000 HD
ATOM      9  H   UNL     1      -8.862  10.115   5.093  0.00  0.00    +0.000 HD
BRANCH   7  10
ATOM     10  C   UNL     1      -8.420  10.926   7.037  0.00  0.00    +0.000 C 
ATOM     11  H   UNL     1      -7.378  11.098   7.329  0.00  0.00    +0.000 HD
ATOM     12  H   UNL     1      -9.048  11.652   7.565  0.00  0.00    +0.000 HD
BRANCH  10  14
ATOM     13  O   UNL     1      -8.403   9.036   8.563  0.00  0.00    +0.000 OA
ATOM     14  C   UNL     1      -8.804   9.549   7.522  0.00  0.00    +0.000 C 
ATOM     15  H   UNL     1      -9.500   9.002   6.863  0.00  0.00    +0.000 HD
ENDBRANCH  10  14
ENDBRANCH   7  10
ENDBRANCH   4   7
ENDBRANCH   1   4
BRANCH   1  16
ATOM     16  C   UNL     1      -6.092  13.700   5.492  0.00  0.00    +0.000 C 
ATOM     17  H   UNL     1      -5.588  14.463   4.885  0.00  0.00    +0.000 HD
ATOM     18  H   UNL     1      -5.359  12.907   5.687  0.00  0.00    +0.000 HD
BRANCH  16  19
ATOM     19  C   UNL     1      -6.544  14.314   6.817  0.00  0.00    +0.000 C 
ATOM     20  H   UNL     1      -6.261  15.373   6.851  0.00  0.00    +0.000 HD
ATOM     21  H   UNL     1      -7.636  14.267   6.895  0.00  0.00    +0.000 HD
BRANCH  19  22
ATOM     22  C   UNL     1      -5.928  13.594   8.005  0.00  0.00    +0.000 C 
ATOM     23  H   UNL     1      -6.538  13.728   8.903  0.00  0.00    +0.000 HD
ATOM     24  H   UNL     1      -4.928  13.988   8.211  0.00  0.00    +0.000 HD
ATOM     25  H   UNL     1      -5.837  12.521   7.808  0.00  0.00    +0.000 HD
ENDBRANCH  19  22
ENDBRANCH  16  19
ENDBRANCH   1  16
TORSDOF 7
ENDMDL
MODEL 8
REMARK VINA RESULT:    -3.822      1.441      2.212
REMARK INTER + INTRA:          -5.640
REMARK INTER:                  -5.404
REMARK INTRA:                  -0.236
REMARK UNBOUND:                -0.365
REMARK  Name = 454
REMARK  7 active torsions:
REMARK  status: ('A' for Active; 'I' for Inactive)
REMARK    1  A    between atoms: C_2  and  C_3
REMARK    2  A    between atoms: C_2  and  C_4
REMARK    3  A    between atoms: C_3  and  C_5
REMARK    4  A    between atoms: C_4  and  C_6
REMARK    5  A    between atoms: C_5  and  C_7
REMARK    6  A    between atoms: C_6  and  C_8
REMARK    7  A    between atoms: C_7  and  C_9
REMARK                            x       y       z     vdW  Elec       q    Type
REMARK                         _______ _______ _______ _____ _____    ______ ____
ROOT
ATOM      1  C   UNL     1      -2.750   7.487 -11.253  0.00  0.00    +0.000 C 
ATOM      2  H   UNL     1      -2.707   8.576 -11.136  0.00  0.00    +0.000 HD
ATOM      3  H   UNL     1      -3.589   7.266 -11.924  0.00  0.00    +0.000 HD
ENDROOT
BRANCH   1   4
ATOM      4  C   UNL     1      -1.450   6.986 -11.886  0.00  0.00    +0.000 C 
ATOM      5  H   UNL     1      -1.685   6.360 -12.756  0.00  0.00    +0.000 HD
ATOM      6  H   UNL     1      -0.926   6.344 -11.167  0.00  0.00    +0.000 HD
BRANCH   4   7
ATOM      7  C   UNL     1      -0.514   8.114 -12.325  0.00  0.00    +0.000 C 
ATOM      8  H   UNL     1      -0.714   9.008 -11.720  0.00  0.00    +0.000 HD
ATOM      9  H   UNL     1       0.521   7.822 -12.109  0.00  0.00    +0.000 HD
BRANCH   7  10
ATOM     10  C   UNL     1      -0.640   8.465 -13.804  0.00  0.00    +0.000 C 
ATOM     11  H   UNL     1      -0.197   7.677 -14.424  0.00  0.00    +0.000 HD
ATOM     12  H   UNL     1      -1.694   8.567 -14.083  0.00  0.00    +0.000 HD
BRANCH  10  14
ATOM     13  O   UNL     1       1.140   9.839 -14.724  0.00  0.00    +0.000 OA
ATOM     14  C   UNL     1       0.056   9.759 -14.154  0.00  0.00    +0.000 C 
ATOM     15  H   UNL     1      -0.488  10.673 -13.861  0.00  0.00    +0.000 HD
ENDBRANCH  10  14
ENDBRANCH   7  10
ENDBRANCH   4   7
ENDBRANCH   1   4
BRANCH   1  16
ATOM     16  C   UNL     1      -2.993   6.830  -9.892  0.00  0.00    +0.000 C 
ATOM     17  H   UNL     1      -2.129   6.211  -9.623  0.00  0.00    +0.000 HD
ATOM     18  H   UNL     1      -3.861   6.163  -9.957  0.00  0.00    +0.000 HD
BRANCH  16  19
ATOM     19  C   UNL     1      -3.235   7.876  -8.804  0.00  0.00    +0.000 C 
ATOM     20  H   UNL     1      -4.312   8.039  -8.680  0.00  0.00    +0.000 HD
ATOM     21  H   UNL     1      -2.849   7.512  -7.845  0.00  0.00    +0.000 HD
BRANCH  19  22
ATOM     22  C   UNL     1      -2.564   9.198  -9.141  0.00  0.00    +0.000 C 
ATOM     23  H   UNL     1      -1.858   9.489  -8.357  0.00  0.00    +0.000 HD
ATOM     24  H   UNL     1      -3.313   9.990  -9.235  0.00  0.00    +0.000 HD
ATOM     25  H   UNL     1      -2.019   9.131 -10.087  0.00  0.00    +0.000 HD
ENDBRANCH  19  22
ENDBRANCH  16  19
ENDBRANCH   1  16
TORSDOF 7
ENDMDL
MODEL 9
REMARK VINA RESULT:    -3.751      1.762      2.497
REMARK INTER + INTRA:          -5.541
REMARK INTER:                  -5.176
REMARK INTRA:                  -0.365
REMARK UNBOUND:                -0.365
REMARK  Name = 454
REMARK  7 active torsions:
REMARK  status: ('A' for Active; 'I' for Inactive)
REMARK    1  A    between atoms: C_2  and  C_3
REMARK    2  A    between atoms: C_2  and  C_4
REMARK    3  A    between atoms: C_3  and  C_5
REMARK    4  A    between atoms: C_4  and  C_6
REMARK    5  A    between atoms: C_5  and  C_7
REMARK    6  A    between atoms: C_6  and  C_8
REMARK    7  A    between atoms: C_7  and  C_9
REMARK                            x       y       z     vdW  Elec       q    Type
REMARK                         _______ _______ _______ _____ _____    ______ ____
ROOT
ATOM      1  C   UNL     1      -3.827   6.878 -11.384  0.00  0.00    +0.000 C 
ATOM      2  H   UNL     1      -4.817   6.695 -10.948  0.00  0.00    +0.000 HD
ATOM      3  H   UNL     1      -3.641   6.079 -12.112  0.00  0.00    +0.000 HD
ENDROOT
BRANCH   1   4
ATOM      4  C   UNL     1      -3.824   8.229 -12.103  0.00  0.00    +0.000 C 
ATOM      5  H   UNL     1      -4.082   9.022 -11.390  0.00  0.00    +0.000 HD
ATOM      6  H   UNL     1      -4.608   8.227 -12.871  0.00  0.00    +0.000 HD
BRANCH   4   7
ATOM      7  C   UNL     1      -2.483   8.566 -12.757  0.00  0.00    +0.000 C 
ATOM      8  H   UNL     1      -1.743   7.804 -12.482  0.00  0.00    +0.000 HD
ATOM      9  H   UNL     1      -2.595   8.508 -13.847  0.00  0.00    +0.000 HD
BRANCH   7  10
ATOM     10  C   UNL     1      -1.954   9.947 -12.378  0.00  0.00    +0.000 C 
ATOM     11  H   UNL     1      -1.498  10.434 -13.247  0.00  0.00    +0.000 HD
ATOM     12  H   UNL     1      -2.771  10.582 -12.019  0.00  0.00    +0.000 HD
BRANCH  10  14
ATOM     13  O   UNL     1      -1.135  10.009 -10.092  0.00  0.00    +0.000 OA
ATOM     14  C   UNL     1      -0.906   9.888 -11.292  0.00  0.00    +0.000 C 
ATOM     15  H   UNL     1       0.123   9.716 -11.649  0.00  0.00    +0.000 HD
ENDBRANCH  10  14
ENDBRANCH   7  10
ENDBRANCH   4   7
ENDBRANCH   1   4
BRANCH   1  16
ATOM     16  C   UNL     1      -2.763   6.832 -10.285  0.00  0.00    +0.000 C 
ATOM     17  H   UNL     1      -2.113   7.712 -10.365  0.00  0.00    +0.000 HD
ATOM     18  H   UNL     1      -2.129   5.948 -10.426  0.00  0.00    +0.000 HD
BRANCH  16  19
ATOM     19  C   UNL     1      -3.399   6.787  -8.896  0.00  0.00    +0.000 C 
ATOM     20  H   UNL     1      -2.841   6.094  -8.255  0.00  0.00    +0.000 HD
ATOM     21  H   UNL     1      -3.342   7.777  -8.428  0.00  0.00    +0.000 HD
BRANCH  19  22
ATOM     22  C   UNL     1      -4.852   6.349  -8.961  0.00  0.00    +0.000 C 
ATOM     23  H   UNL     1      -4.959   5.301  -8.664  0.00  0.00    +0.000 HD
ATOM     24  H   UNL     1      -5.235   6.454  -9.981  0.00  0.00    +0.000 HD
ATOM     25  H   UNL     1      -5.475   6.959  -8.299  0.00  0.00    +0.000 HD
ENDBRANCH  19  22
ENDBRANCH  16  19
ENDBRANCH   1  16
TORSDOF 7
ENDMDL
MODEL 10
REMARK VINA RESULT:    -3.729      1.522      3.443
REMARK INTER + INTRA:          -5.512
REMARK INTER:                  -5.049
REMARK INTRA:                  -0.463
REMARK UNBOUND:                -0.365
REMARK  Name = 454
REMARK  7 active torsions:
REMARK  status: ('A' for Active; 'I' for Inactive)
REMARK    1  A    between atoms: C_2  and  C_3
REMARK    2  A    between atoms: C_2  and  C_4
REMARK    3  A    between atoms: C_3  and  C_5
REMARK    4  A    between atoms: C_4  and  C_6
REMARK    5  A    between atoms: C_5  and  C_7
REMARK    6  A    between atoms: C_6  and  C_8
REMARK    7  A    between atoms: C_7  and  C_9
REMARK                            x       y       z     vdW  Elec       q    Type
REMARK                         _______ _______ _______ _____ _____    ______ ____
ROOT
ATOM      1  C   UNL     1      -1.568   7.308 -12.541  0.00  0.00    +0.000 C 
ATOM      2  H   UNL     1      -1.255   6.528 -13.245  0.00  0.00    +0.000 HD
ATOM      3  H   UNL     1      -2.424   7.827 -12.990  0.00  0.00    +0.000 HD
ENDROOT
BRANCH   1   4
ATOM      4  C   UNL     1      -2.002   6.665 -11.222  0.00  0.00    +0.000 C 
ATOM      5  H   UNL     1      -1.192   6.759 -10.487  0.00  0.00    +0.000 HD
ATOM      6  H   UNL     1      -2.160   5.591 -11.382  0.00  0.00    +0.000 HD
BRANCH   4   7
ATOM      7  C   UNL     1      -3.276   7.277 -10.637  0.00  0.00    +0.000 C 
ATOM      8  H   UNL     1      -3.509   8.209 -11.168  0.00  0.00    +0.000 HD
ATOM      9  H   UNL     1      -4.116   6.598 -10.825  0.00  0.00    +0.000 HD
BRANCH   7  10
ATOM     10  C   UNL     1      -3.182   7.558  -9.140  0.00  0.00    +0.000 C 
ATOM     11  H   UNL     1      -4.153   7.399  -8.658  0.00  0.00    +0.000 HD
ATOM     12  H   UNL     1      -2.454   6.886  -8.672  0.00  0.00    +0.000 HD
BRANCH  10  14
ATOM     13  O   UNL     1      -1.762   9.521  -9.309  0.00  0.00    +0.000 OA
ATOM     14  C   UNL     1      -2.757   8.976  -8.841  0.00  0.00    +0.000 C 
ATOM     15  H   UNL     1      -3.421   9.524  -8.152  0.00  0.00    +0.000 HD
ENDBRANCH  10  14
ENDBRANCH   7  10
ENDBRANCH   4   7
ENDBRANCH   1   4
BRANCH   1  16
ATOM     16  C   UNL     1      -0.422   8.298 -12.325  0.00  0.00    +0.000 C 
ATOM     17  H   UNL     1       0.511   7.873 -12.715  0.00  0.00    +0.000 HD
ATOM     18  H   UNL     1      -0.277   8.462 -11.250  0.00  0.00    +0.000 HD
BRANCH  16  19
ATOM     19  C   UNL     1      -0.703   9.635 -13.010  0.00  0.00    +0.000 C 
ATOM     20  H   UNL     1      -0.113  10.427 -12.534  0.00  0.00    +0.000 HD
ATOM     21  H   UNL     1      -0.395   9.587 -14.061  0.00  0.00    +0.000 HD
BRANCH  19  22
ATOM     22  C   UNL     1      -2.177   9.999 -12.939  0.00  0.00    +0.000 C 
ATOM     23  H   UNL     1      -2.313  11.002 -12.521  0.00  0.00    +0.000 HD
ATOM     24  H   UNL     1      -2.713   9.290 -12.301  0.00  0.00    +0.000 HD
ATOM     25  H   UNL     1      -2.635   9.976 -13.933  0.00  0.00    +0.000 HD
ENDBRANCH  19  22
ENDBRANCH  16  19
ENDBRANCH   1  16
TORSDOF 7
ENDMDL
