MODEL 1
REMARK VINA RESULT:    -4.840      0.000      0.000
REMARK INTER + INTRA:          -5.603
REMARK INTER:                  -5.548
REMARK INTRA:                  -0.055
REMARK UNBOUND:                -0.055
REMARK  Name = 31244
REMARK  3 active torsions:
REMARK  status: ('A' for Active; 'I' for Inactive)
REMARK    1  A    between atoms: O_1  and  C_3
REMARK    2  A    between atoms: O_1  and  C_10
REMARK    3  A    between atoms: C_4  and  C_9
REMARK                            x       y       z     vdW  Elec       q    Type
REMARK                         _______ _______ _______ _____ _____    ______ ____
ROOT
ATOM      1  C   UNL     1      -1.378   8.855 -11.411  0.00  0.00    +0.000 A 
ATOM      2  C   UNL     1      -3.044   7.470  -9.655  0.00  0.00    +0.000 A 
ATOM      3  C   UNL     1      -1.852   9.482 -10.259  0.00  0.00    +0.000 A 
ATOM      4  C   UNL     1      -1.736   7.536 -11.685  0.00  0.00    +0.000 A 
ATOM      5  C   UNL     1      -2.685   8.790  -9.381  0.00  0.00    +0.000 A 
ATOM      6  C   UNL     1      -2.569   6.842 -10.807  0.00  0.00    +0.000 A 
ATOM      7  H   UNL     1      -1.576  10.510 -10.041  0.00  0.00    +0.000 HD
ATOM      8  H   UNL     1      -1.404   6.989 -12.561  0.00  0.00    +0.000 HD
ATOM      9  H   UNL     1      -3.047   9.292  -8.487  0.00  0.00    +0.000 HD
ATOM     10  H   UNL     1      -2.836   5.815 -11.040  0.00  0.00    +0.000 HD
ENDROOT
BRANCH   2  12
ATOM     11  O   UNL     1      -5.038   6.347  -9.051  0.00  0.00    +0.000 OA
ATOM     12  C   UNL     1      -3.912   6.747  -8.739  0.00  0.00    +0.000 C 
ATOM     13  H   UNL     1      -3.518   6.562  -7.725  0.00  0.00    +0.000 HD
ENDBRANCH   2  12
BRANCH   1  14
ATOM     14  O   UNL     1      -0.564   9.531 -12.269  0.00  0.00    +0.000 OA
BRANCH  14  15
ATOM     15  C   UNL     1      -0.172   8.855 -13.461  0.00  0.00    +0.000 C 
ATOM     16  H   UNL     1       0.635   9.384 -13.977  0.00  0.00    +0.000 HD
ATOM     17  H   UNL     1      -1.028   8.664 -14.116  0.00  0.00    +0.000 HD
ATOM     18  H   UNL     1       0.225   7.878 -13.163  0.00  0.00    +0.000 HD
ENDBRANCH  14  15
ENDBRANCH   1  14
TORSDOF 3
ENDMDL
MODEL 2
REMARK VINA RESULT:    -4.694     13.471     13.915
REMARK INTER + INTRA:          -5.435
REMARK INTER:                  -5.379
REMARK INTRA:                  -0.056
REMARK UNBOUND:                -0.055
REMARK  Name = 31244
REMARK  3 active torsions:
REMARK  status: ('A' for Active; 'I' for Inactive)
REMARK    1  A    between atoms: O_1  and  C_3
REMARK    2  A    between atoms: O_1  and  C_10
REMARK    3  A    between atoms: C_4  and  C_9
REMARK                            x       y       z     vdW  Elec       q    Type
REMARK                         _______ _______ _______ _____ _____    ______ ____
ROOT
ATOM      1  C   UNL     1       7.647  10.195  -0.835  0.00  0.00    +0.000 A 
ATOM      2  C   UNL     1       5.166  10.250   0.438  0.00  0.00    +0.000 A 
ATOM      3  C   UNL     1       6.746  11.224  -1.107  0.00  0.00    +0.000 A 
ATOM      4  C   UNL     1       7.309   9.194   0.074  0.00  0.00    +0.000 A 
ATOM      5  C   UNL     1       5.506  11.251  -0.471  0.00  0.00    +0.000 A 
ATOM      6  C   UNL     1       6.068   9.220   0.711  0.00  0.00    +0.000 A 
ATOM      7  H   UNL     1       7.005  12.007  -1.814  0.00  0.00    +0.000 HD
ATOM      8  H   UNL     1       7.960   8.366   0.331  0.00  0.00    +0.000 HD
ATOM      9  H   UNL     1       4.814  12.060  -0.693  0.00  0.00    +0.000 HD
ATOM     10  H   UNL     1       5.823   8.430   1.416  0.00  0.00    +0.000 HD
ENDROOT
BRANCH   2  12
ATOM     11  O   UNL     1       3.265  11.322   1.353  0.00  0.00    +0.000 OA
ATOM     12  C   UNL     1       3.873  10.277   1.103  0.00  0.00    +0.000 C 
ATOM     13  H   UNL     1       3.440   9.301   1.382  0.00  0.00    +0.000 HD
ENDBRANCH   2  12
BRANCH   1  14
ATOM     14  O   UNL     1       8.858  10.169  -1.456  0.00  0.00    +0.000 OA
BRANCH  14  15
ATOM     15  C   UNL     1       9.537   8.915  -1.503  0.00  0.00    +0.000 C 
ATOM     16  H   UNL     1       9.624   8.543  -2.529  0.00  0.00    +0.000 HD
ATOM     17  H   UNL     1       9.075   8.182  -0.834  0.00  0.00    +0.000 HD
ATOM     18  H   UNL     1      10.555   9.085  -1.137  0.00  0.00    +0.000 HD
ENDBRANCH  14  15
ENDBRANCH   1  14
TORSDOF 3
ENDMDL
MODEL 3
REMARK VINA RESULT:    -4.476     13.538     14.613
REMARK INTER + INTRA:          -5.186
REMARK INTER:                  -5.135
REMARK INTRA:                  -0.051
REMARK UNBOUND:                -0.055
REMARK  Name = 31244
REMARK  3 active torsions:
REMARK  status: ('A' for Active; 'I' for Inactive)
REMARK    1  A    between atoms: O_1  and  C_3
REMARK    2  A    between atoms: O_1  and  C_10
REMARK    3  A    between atoms: C_4  and  C_9
REMARK                            x       y       z     vdW  Elec       q    Type
REMARK                         _______ _______ _______ _____ _____    ______ ____
ROOT
ATOM      1  C   UNL     1       4.805   8.298   2.463  0.00  0.00    +0.000 A 
ATOM      2  C   UNL     1       4.591  10.207   0.441  0.00  0.00    +0.000 A 
ATOM      3  C   UNL     1       5.811   8.414   1.505  0.00  0.00    +0.000 A 
ATOM      4  C   UNL     1       3.692   9.135   2.411  0.00  0.00    +0.000 A 
ATOM      5  C   UNL     1       5.705   9.368   0.494  0.00  0.00    +0.000 A 
ATOM      6  C   UNL     1       3.584  10.090   1.400  0.00  0.00    +0.000 A 
ATOM      7  H   UNL     1       6.681   7.764   1.541  0.00  0.00    +0.000 HD
ATOM      8  H   UNL     1       2.874   9.099   3.123  0.00  0.00    +0.000 HD
ATOM      9  H   UNL     1       6.497   9.447  -0.246  0.00  0.00    +0.000 HD
ATOM     10  H   UNL     1       2.708  10.733   1.377  0.00  0.00    +0.000 HD
ENDROOT
BRANCH   2  12
ATOM     11  O   UNL     1       3.532  11.245  -1.403  0.00  0.00    +0.000 OA
ATOM     12  C   UNL     1       4.479  11.202  -0.613  0.00  0.00    +0.000 C 
ATOM     13  H   UNL     1       5.296  11.942  -0.684  0.00  0.00    +0.000 HD
ENDBRANCH   2  12
BRANCH   1  14
ATOM     14  O   UNL     1       4.909   7.366   3.451  0.00  0.00    +0.000 OA
BRANCH  14  15
ATOM     15  C   UNL     1       6.209   7.130   3.986  0.00  0.00    +0.000 C 
ATOM     16  H   UNL     1       6.766   8.063   4.117  0.00  0.00    +0.000 HD
ATOM     17  H   UNL     1       6.762   6.396   3.391  0.00  0.00    +0.000 HD
ATOM     18  H   UNL     1       6.074   6.696   4.983  0.00  0.00    +0.000 HD
ENDBRANCH  14  15
ENDBRANCH   1  14
TORSDOF 3
ENDMDL
MODEL 4
REMARK VINA RESULT:    -4.392     16.280     16.847
REMARK INTER + INTRA:          -5.090
REMARK INTER:                  -5.036
REMARK INTRA:                  -0.054
REMARK UNBOUND:                -0.055
REMARK  Name = 31244
REMARK  3 active torsions:
REMARK  status: ('A' for Active; 'I' for Inactive)
REMARK    1  A    between atoms: O_1  and  C_3
REMARK    2  A    between atoms: O_1  and  C_10
REMARK    3  A    between atoms: C_4  and  C_9
REMARK                            x       y       z     vdW  Elec       q    Type
REMARK                         _______ _______ _______ _____ _____    ______ ____
ROOT
ATOM      1  C   UNL     1       6.681   8.072   1.794  0.00  0.00    +0.000 A 
ATOM      2  C   UNL     1       7.405   8.566   4.443  0.00  0.00    +0.000 A 
ATOM      3  C   UNL     1       7.663   9.019   2.084  0.00  0.00    +0.000 A 
ATOM      4  C   UNL     1       6.060   7.372   2.828  0.00  0.00    +0.000 A 
ATOM      5  C   UNL     1       8.025   9.266   3.408  0.00  0.00    +0.000 A 
ATOM      6  C   UNL     1       6.422   7.619   4.153  0.00  0.00    +0.000 A 
ATOM      7  H   UNL     1       8.150   9.567   1.282  0.00  0.00    +0.000 HD
ATOM      8  H   UNL     1       5.290   6.624   2.674  0.00  0.00    +0.000 HD
ATOM      9  H   UNL     1       8.792  10.007   3.618  0.00  0.00    +0.000 HD
ATOM     10  H   UNL     1       5.926   7.062   4.944  0.00  0.00    +0.000 HD
ENDROOT
BRANCH   2  12
ATOM     11  O   UNL     1       7.190   9.632   6.545  0.00  0.00    +0.000 OA
ATOM     12  C   UNL     1       7.781   8.823   5.824  0.00  0.00    +0.000 C 
ATOM     13  H   UNL     1       8.640   8.251   6.216  0.00  0.00    +0.000 HD
ENDBRANCH   2  12
BRANCH   1  14
ATOM     14  O   UNL     1       6.328   7.831   0.502  0.00  0.00    +0.000 OA
BRANCH  14  15
ATOM     15  C   UNL     1       7.092   8.480  -0.513  0.00  0.00    +0.000 C 
ATOM     16  H   UNL     1       7.746   7.775  -1.036  0.00  0.00    +0.000 HD
ATOM     17  H   UNL     1       7.642   9.339  -0.115  0.00  0.00    +0.000 HD
ATOM     18  H   UNL     1       6.384   8.868  -1.252  0.00  0.00    +0.000 HD
ENDBRANCH  14  15
ENDBRANCH   1  14
TORSDOF 3
ENDMDL
MODEL 5
REMARK VINA RESULT:    -4.342     25.864     27.019
REMARK INTER + INTRA:          -5.032
REMARK INTER:                  -4.980
REMARK INTRA:                  -0.053
REMARK UNBOUND:                -0.055
REMARK  Name = 31244
REMARK  3 active torsions:
REMARK  status: ('A' for Active; 'I' for Inactive)
REMARK    1  A    between atoms: O_1  and  C_3
REMARK    2  A    between atoms: O_1  and  C_10
REMARK    3  A    between atoms: C_4  and  C_9
REMARK                            x       y       z     vdW  Elec       q    Type
REMARK                         _______ _______ _______ _____ _____    ______ ____
ROOT
ATOM      1  C   UNL     1     -20.745  -2.964   4.543  0.00  0.00    +0.000 A 
ATOM      2  C   UNL     1     -20.989  -1.331   6.792  0.00  0.00    +0.000 A 
ATOM      3  C   UNL     1     -20.765  -1.576   4.399  0.00  0.00    +0.000 A 
ATOM      4  C   UNL     1     -20.847  -3.535   5.811  0.00  0.00    +0.000 A 
ATOM      5  C   UNL     1     -20.887  -0.760   5.523  0.00  0.00    +0.000 A 
ATOM      6  C   UNL     1     -20.969  -2.719   6.936  0.00  0.00    +0.000 A 
ATOM      7  H   UNL     1     -20.686  -1.126   3.414  0.00  0.00    +0.000 HD
ATOM      8  H   UNL     1     -20.838  -4.604   5.994  0.00  0.00    +0.000 HD
ATOM      9  H   UNL     1     -20.902   0.319   5.395  0.00  0.00    +0.000 HD
ATOM     10  H   UNL     1     -21.047  -3.185   7.915  0.00  0.00    +0.000 HD
ENDROOT
BRANCH   2  12
ATOM     11  O   UNL     1     -22.073  -0.543   8.743  0.00  0.00    +0.000 OA
ATOM     12  C   UNL     1     -21.116  -0.481   7.965  0.00  0.00    +0.000 C 
ATOM     13  H   UNL     1     -20.303   0.244   8.141  0.00  0.00    +0.000 HD
ENDBRANCH   2  12
BRANCH   1  14
ATOM     14  O   UNL     1     -20.626  -3.761   3.446  0.00  0.00    +0.000 OA
BRANCH  14  15
ATOM     15  C   UNL     1     -19.953  -5.006   3.618  0.00  0.00    +0.000 C 
ATOM     16  H   UNL     1     -20.314  -5.759   2.910  0.00  0.00    +0.000 HD
ATOM     17  H   UNL     1     -20.006  -5.352   4.655  0.00  0.00    +0.000 HD
ATOM     18  H   UNL     1     -18.895  -4.835   3.391  0.00  0.00    +0.000 HD
ENDBRANCH  14  15
ENDBRANCH   1  14
TORSDOF 3
ENDMDL
MODEL 6
REMARK VINA RESULT:    -4.281     31.611     34.430
REMARK INTER + INTRA:          -4.962
REMARK INTER:                  -4.909
REMARK INTRA:                  -0.053
REMARK UNBOUND:                -0.055
REMARK  Name = 31244
REMARK  3 active torsions:
REMARK  status: ('A' for Active; 'I' for Inactive)
REMARK    1  A    between atoms: O_1  and  C_3
REMARK    2  A    between atoms: O_1  and  C_10
REMARK    3  A    between atoms: C_4  and  C_9
REMARK                            x       y       z     vdW  Elec       q    Type
REMARK                         _______ _______ _______ _____ _____    ______ ____
ROOT
ATOM      1  C   UNL     1      -9.472 -12.328  17.544  0.00  0.00    +0.000 A 
ATOM      2  C   UNL     1      -9.360 -10.719  15.268  0.00  0.00    +0.000 A 
ATOM      3  C   UNL     1      -8.316 -12.302  16.764  0.00  0.00    +0.000 A 
ATOM      4  C   UNL     1     -10.572 -11.550  17.187  0.00  0.00    +0.000 A 
ATOM      5  C   UNL     1      -8.260 -11.497  15.627  0.00  0.00    +0.000 A 
ATOM      6  C   UNL     1     -10.517 -10.745  16.048  0.00  0.00    +0.000 A 
ATOM      7  H   UNL     1      -7.456 -12.906  17.039  0.00  0.00    +0.000 HD
ATOM      8  H   UNL     1     -11.501 -11.522  17.747  0.00  0.00    +0.000 HD
ATOM      9  H   UNL     1      -7.352 -11.488  15.029  0.00  0.00    +0.000 HD
ATOM     10  H   UNL     1     -11.385 -10.146  15.787  0.00  0.00    +0.000 HD
ENDROOT
BRANCH   2  12
ATOM     11  O   UNL     1      -9.255  -8.647  14.129  0.00  0.00    +0.000 OA
ATOM     12  C   UNL     1      -9.303  -9.880  14.082  0.00  0.00    +0.000 C 
ATOM     13  H   UNL     1      -9.302 -10.400  13.108  0.00  0.00    +0.000 HD
ENDBRANCH   2  12
BRANCH   1  14
ATOM     14  O   UNL     1      -9.527 -13.113  18.655  0.00  0.00    +0.000 OA
BRANCH  14  15
ATOM     15  C   UNL     1     -10.477 -12.756  19.657  0.00  0.00    +0.000 C 
ATOM     16  H   UNL     1     -10.639 -13.573  20.367  0.00  0.00    +0.000 HD
ATOM     17  H   UNL     1     -11.412 -12.399  19.215  0.00  0.00    +0.000 HD
ATOM     18  H   UNL     1     -10.051 -11.920  20.223  0.00  0.00    +0.000 HD
ENDBRANCH  14  15
ENDBRANCH   1  14
TORSDOF 3
ENDMDL
MODEL 7
REMARK VINA RESULT:    -4.267      1.932      2.772
REMARK INTER + INTRA:          -4.946
REMARK INTER:                  -4.904
REMARK INTRA:                  -0.042
REMARK UNBOUND:                -0.055
REMARK  Name = 31244
REMARK  3 active torsions:
REMARK  status: ('A' for Active; 'I' for Inactive)
REMARK    1  A    between atoms: O_1  and  C_3
REMARK    2  A    between atoms: O_1  and  C_10
REMARK    3  A    between atoms: C_4  and  C_9
REMARK                            x       y       z     vdW  Elec       q    Type
REMARK                         _______ _______ _______ _____ _____    ______ ____
ROOT
ATOM      1  C   UNL     1      -3.403   7.312 -10.855  0.00  0.00    +0.000 A 
ATOM      2  C   UNL     1      -5.416   6.117  -9.339  0.00  0.00    +0.000 A 
ATOM      3  C   UNL     1      -3.190   7.040  -9.503  0.00  0.00    +0.000 A 
ATOM      4  C   UNL     1      -4.622   6.987 -11.448  0.00  0.00    +0.000 A 
ATOM      5  C   UNL     1      -4.197   6.442  -8.746  0.00  0.00    +0.000 A 
ATOM      6  C   UNL     1      -5.630   6.389 -10.691  0.00  0.00    +0.000 A 
ATOM      7  H   UNL     1      -2.242   7.291  -9.036  0.00  0.00    +0.000 HD
ATOM      8  H   UNL     1      -4.854   7.171 -12.491  0.00  0.00    +0.000 HD
ATOM      9  H   UNL     1      -4.016   6.236  -7.694  0.00  0.00    +0.000 HD
ATOM     10  H   UNL     1      -6.572   6.144 -11.172  0.00  0.00    +0.000 HD
ENDROOT
BRANCH   2  12
ATOM     11  O   UNL     1      -7.148   6.110  -7.726  0.00  0.00    +0.000 OA
ATOM     12  C   UNL     1      -6.467   5.493  -8.549  0.00  0.00    +0.000 C 
ATOM     13  H   UNL     1      -6.639   4.416  -8.718  0.00  0.00    +0.000 HD
ENDBRANCH   2  12
BRANCH   1  14
ATOM     14  O   UNL     1      -2.421   7.896 -11.595  0.00  0.00    +0.000 OA
BRANCH  14  15
ATOM     15  C   UNL     1      -1.317   7.075 -11.971  0.00  0.00    +0.000 C 
ATOM     16  H   UNL     1      -0.879   6.568 -11.106  0.00  0.00    +0.000 HD
ATOM     17  H   UNL     1      -0.572   7.640 -12.542  0.00  0.00    +0.000 HD
ATOM     18  H   UNL     1      -1.705   6.296 -12.636  0.00  0.00    +0.000 HD
ENDBRANCH  14  15
ENDBRANCH   1  14
TORSDOF 3
ENDMDL
MODEL 8
REMARK VINA RESULT:    -4.263     31.018     33.620
REMARK INTER + INTRA:          -4.941
REMARK INTER:                  -4.888
REMARK INTRA:                  -0.053
REMARK UNBOUND:                -0.055
REMARK  Name = 31244
REMARK  3 active torsions:
REMARK  status: ('A' for Active; 'I' for Inactive)
REMARK    1  A    between atoms: O_1  and  C_3
REMARK    2  A    between atoms: O_1  and  C_10
REMARK    3  A    between atoms: C_4  and  C_9
REMARK                            x       y       z     vdW  Elec       q    Type
REMARK                         _______ _______ _______ _____ _____    ______ ____
ROOT
ATOM      1  C   UNL     1      -9.538 -10.211  14.830  0.00  0.00    +0.000 A 
ATOM      2  C   UNL     1      -9.597 -11.928  17.027  0.00  0.00    +0.000 A 
ATOM      3  C   UNL     1      -8.474 -11.083  15.062  0.00  0.00    +0.000 A 
ATOM      4  C   UNL     1     -10.631 -10.197  15.695  0.00  0.00    +0.000 A 
ATOM      5  C   UNL     1      -8.504 -11.941  16.161  0.00  0.00    +0.000 A 
ATOM      6  C   UNL     1     -10.661 -11.056  16.795  0.00  0.00    +0.000 A 
ATOM      7  H   UNL     1      -7.620 -11.097  14.391  0.00  0.00    +0.000 HD
ATOM      8  H   UNL     1     -11.490  -9.546  15.574  0.00  0.00    +0.000 HD
ATOM      9  H   UNL     1      -7.667 -12.615  16.329  0.00  0.00    +0.000 HD
ATOM     10  H   UNL     1     -11.522 -11.029  17.457  0.00  0.00    +0.000 HD
ENDROOT
BRANCH   2  12
ATOM     11  O   UNL     1      -9.841 -12.436  19.326  0.00  0.00    +0.000 OA
ATOM     12  C   UNL     1      -9.628 -12.823  18.173  0.00  0.00    +0.000 C 
ATOM     13  H   UNL     1      -9.450 -13.894  17.969  0.00  0.00    +0.000 HD
ENDBRANCH   2  12
BRANCH   1  14
ATOM     14  O   UNL     1      -9.509  -9.372  13.758  0.00  0.00    +0.000 OA
BRANCH  14  15
ATOM     15  C   UNL     1      -8.821  -9.828  12.594  0.00  0.00    +0.000 C 
ATOM     16  H   UNL     1      -8.798  -9.061  11.814  0.00  0.00    +0.000 HD
ATOM     17  H   UNL     1      -9.228 -10.777  12.232  0.00  0.00    +0.000 HD
ATOM     18  H   UNL     1      -7.782 -10.017  12.887  0.00  0.00    +0.000 HD
ENDBRANCH  14  15
ENDBRANCH   1  14
TORSDOF 3
ENDMDL
MODEL 9
REMARK VINA RESULT:    -4.174     17.164     18.681
REMARK INTER + INTRA:          -4.840
REMARK INTER:                  -4.795
REMARK INTRA:                  -0.045
REMARK UNBOUND:                -0.055
REMARK  Name = 31244
REMARK  3 active torsions:
REMARK  status: ('A' for Active; 'I' for Inactive)
REMARK    1  A    between atoms: O_1  and  C_3
REMARK    2  A    between atoms: O_1  and  C_10
REMARK    3  A    between atoms: C_4  and  C_9
REMARK                            x       y       z     vdW  Elec       q    Type
REMARK                         _______ _______ _______ _____ _____    ______ ____
ROOT
ATOM      1  C   UNL     1      -8.400  10.841   6.578  0.00  0.00    +0.000 A 
ATOM      2  C   UNL     1      -6.873  13.012   5.721  0.00  0.00    +0.000 A 
ATOM      3  C   UNL     1      -8.025  11.832   7.485  0.00  0.00    +0.000 A 
ATOM      4  C   UNL     1      -8.011  10.935   5.243  0.00  0.00    +0.000 A 
ATOM      5  C   UNL     1      -7.262  12.918   7.057  0.00  0.00    +0.000 A 
ATOM      6  C   UNL     1      -7.247  12.021   4.813  0.00  0.00    +0.000 A 
ATOM      7  H   UNL     1      -8.326  11.763   8.527  0.00  0.00    +0.000 HD
ATOM      8  H   UNL     1      -8.266  10.202   4.486  0.00  0.00    +0.000 HD
ATOM      9  H   UNL     1      -6.978  13.682   7.776  0.00  0.00    +0.000 HD
ATOM     10  H   UNL     1      -6.954  12.075   3.768  0.00  0.00    +0.000 HD
ENDROOT
BRANCH   2  12
ATOM     11  O   UNL     1      -6.484  15.309   5.301  0.00  0.00    +0.000 OA
ATOM     12  C   UNL     1      -6.076  14.144   5.274  0.00  0.00    +0.000 C 
ATOM     13  H   UNL     1      -5.063  13.918   4.898  0.00  0.00    +0.000 HD
ENDBRANCH   2  12
BRANCH   1  14
ATOM     14  O   UNL     1      -9.145   9.781   6.996  0.00  0.00    +0.000 OA
BRANCH  14  15
ATOM     15  C   UNL     1     -10.465  10.058   7.460  0.00  0.00    +0.000 C 
ATOM     16  H   UNL     1     -11.213   9.469   6.919  0.00  0.00    +0.000 HD
ATOM     17  H   UNL     1     -10.683  11.130   7.436  0.00  0.00    +0.000 HD
ATOM     18  H   UNL     1     -10.510   9.746   8.509  0.00  0.00    +0.000 HD
ENDBRANCH  14  15
ENDBRANCH   1  14
TORSDOF 3
ENDMDL
MODEL 10
REMARK VINA RESULT:    -4.043      1.978      4.805
REMARK INTER + INTRA:          -4.689
REMARK INTER:                  -4.634
REMARK INTRA:                  -0.055
REMARK UNBOUND:                -0.055
REMARK  Name = 31244
REMARK  3 active torsions:
REMARK  status: ('A' for Active; 'I' for Inactive)
REMARK    1  A    between atoms: O_1  and  C_3
REMARK    2  A    between atoms: O_1  and  C_10
REMARK    3  A    between atoms: C_4  and  C_9
REMARK                            x       y       z     vdW  Elec       q    Type
REMARK                         _______ _______ _______ _____ _____    ______ ____
ROOT
ATOM      1  C   UNL     1      -5.316   6.212  -9.737  0.00  0.00    +0.000 A 
ATOM      2  C   UNL     1      -3.046   7.637 -10.509  0.00  0.00    +0.000 A 
ATOM      3  C   UNL     1      -4.327   6.510  -8.800  0.00  0.00    +0.000 A 
ATOM      4  C   UNL     1      -5.170   6.626 -11.061  0.00  0.00    +0.000 A 
ATOM      5  C   UNL     1      -3.193   7.222  -9.186  0.00  0.00    +0.000 A 
ATOM      6  C   UNL     1      -4.035   7.339 -11.447  0.00  0.00    +0.000 A 
ATOM      7  H   UNL     1      -4.436   6.189  -7.768  0.00  0.00    +0.000 HD
ATOM      8  H   UNL     1      -5.899   6.429 -11.839  0.00  0.00    +0.000 HD
ATOM      9  H   UNL     1      -2.431   7.447  -8.443  0.00  0.00    +0.000 HD
ATOM     10  H   UNL     1      -3.941   7.653 -12.483  0.00  0.00    +0.000 HD
ENDROOT
BRANCH   2  12
ATOM     11  O   UNL     1      -1.527   9.449 -10.391  0.00  0.00    +0.000 OA
ATOM     12  C   UNL     1      -1.863   8.381 -10.912  0.00  0.00    +0.000 C 
ATOM     13  H   UNL     1      -1.256   7.943 -11.724  0.00  0.00    +0.000 HD
ENDBRANCH   2  12
BRANCH   1  14
ATOM     14  O   UNL     1      -6.424   5.516  -9.361  0.00  0.00    +0.000 OA
BRANCH  14  15
ATOM     15  C   UNL     1      -7.424   5.299 -10.355  0.00  0.00    +0.000 C 
ATOM     16  H   UNL     1      -8.347   5.839 -10.121  0.00  0.00    +0.000 HD
ATOM     17  H   UNL     1      -7.599   4.232 -10.524  0.00  0.00    +0.000 HD
ATOM     18  H   UNL     1      -7.041   5.713 -11.294  0.00  0.00    +0.000 HD
ENDBRANCH  14  15
ENDBRANCH   1  14
TORSDOF 3
ENDMDL
