MODEL 1
REMARK VINA RESULT:    -3.325      0.000      0.000
REMARK INTER + INTRA:          -4.049
REMARK INTER:                  -3.999
REMARK INTRA:                  -0.050
REMARK UNBOUND:                -0.044
REMARK  Name = 8063
REMARK  4 active torsions:
REMARK  status: ('A' for Active; 'I' for Inactive)
REMARK    1  A    between atoms: C_2  and  C_3
REMARK    2  A    between atoms: C_2  and  C_4
REMARK    3  A    between atoms: C_3  and  C_5
REMARK    4  A    between atoms: C_4  and  C_6
REMARK                            x       y       z     vdW  Elec       q    Type
REMARK                         _______ _______ _______ _____ _____    ______ ____
ROOT
ATOM      1  C   UNL     1      -2.739   9.709  -9.928  0.00  0.00    +0.000 C 
ATOM      2  H   UNL     1      -3.250  10.629  -9.617  0.00  0.00    +0.000 HD
ATOM      3  H   UNL     1      -3.254   9.354 -10.831  0.00  0.00    +0.000 HD
ENDROOT
BRANCH   1   4
ATOM      4  C   UNL     1      -2.850   8.656  -8.828  0.00  0.00    +0.000 C 
ATOM      5  H   UNL     1      -1.909   8.599  -8.269  0.00  0.00    +0.000 HD
ATOM      6  H   UNL     1      -3.633   8.943  -8.117  0.00  0.00    +0.000 HD
BRANCH   4   7
ATOM      7  C   UNL     1      -3.171   7.284  -9.400  0.00  0.00    +0.000 C 
ATOM      8  H   UNL     1      -2.286   6.860  -9.886  0.00  0.00    +0.000 HD
ATOM      9  H   UNL     1      -3.971   7.346 -10.145  0.00  0.00    +0.000 HD
ATOM     10  H   UNL     1      -3.488   6.594  -8.611  0.00  0.00    +0.000 HD
ENDBRANCH   4   7
ENDBRANCH   1   4
BRANCH   1  11
ATOM     11  C   UNL     1      -1.282  10.016 -10.258  0.00  0.00    +0.000 C 
ATOM     12  H   UNL     1      -0.611   9.433  -9.619  0.00  0.00    +0.000 HD
ATOM     13  H   UNL     1      -1.070  11.078 -10.096  0.00  0.00    +0.000 HD
BRANCH  11  15
ATOM     14  O   UNL     1      -0.203   8.774 -12.044  0.00  0.00    +0.000 OA
ATOM     15  C   UNL     1      -0.930   9.697 -11.691  0.00  0.00    +0.000 C 
ATOM     16  H   UNL     1      -1.376  10.373 -12.441  0.00  0.00    +0.000 HD
ENDBRANCH  11  15
ENDBRANCH   1  11
TORSDOF 4
ENDMDL
MODEL 2
REMARK VINA RESULT:    -3.316     12.236     12.866
REMARK INTER + INTRA:          -4.039
REMARK INTER:                  -3.989
REMARK INTRA:                  -0.049
REMARK UNBOUND:                -0.044
REMARK  Name = 8063
REMARK  4 active torsions:
REMARK  status: ('A' for Active; 'I' for Inactive)
REMARK    1  A    between atoms: C_2  and  C_3
REMARK    2  A    between atoms: C_2  and  C_4
REMARK    3  A    between atoms: C_3  and  C_5
REMARK    4  A    between atoms: C_4  and  C_6
REMARK                            x       y       z     vdW  Elec       q    Type
REMARK                         _______ _______ _______ _____ _____    ______ ____
ROOT
ATOM      1  C   UNL     1       4.641  10.958   0.376  0.00  0.00    +0.000 C 
ATOM      2  H   UNL     1       4.991  11.475   1.278  0.00  0.00    +0.000 HD
ATOM      3  H   UNL     1       5.474  10.975  -0.340  0.00  0.00    +0.000 HD
ENDROOT
BRANCH   1   4
ATOM      4  C   UNL     1       3.444  11.701  -0.215  0.00  0.00    +0.000 C 
ATOM      5  H   UNL     1       2.559  11.541   0.413  0.00  0.00    +0.000 HD
ATOM      6  H   UNL     1       3.643  12.779  -0.225  0.00  0.00    +0.000 HD
BRANCH   4   7
ATOM      7  C   UNL     1       3.140  11.233  -1.629  0.00  0.00    +0.000 C 
ATOM      8  H   UNL     1       2.095  10.915  -1.707  0.00  0.00    +0.000 HD
ATOM      9  H   UNL     1       3.775  10.386  -1.907  0.00  0.00    +0.000 HD
ATOM     10  H   UNL     1       3.305  12.038  -2.353  0.00  0.00    +0.000 HD
ENDBRANCH   4   7
ENDBRANCH   1   4
BRANCH   1  11
ATOM     11  C   UNL     1       4.287   9.514   0.714  0.00  0.00    +0.000 C 
ATOM     12  H   UNL     1       5.128   8.849   0.493  0.00  0.00    +0.000 HD
ATOM     13  H   UNL     1       3.426   9.184   0.122  0.00  0.00    +0.000 HD
BRANCH  11  15
ATOM     14  O   UNL     1       2.796   9.375   2.626  0.00  0.00    +0.000 OA
ATOM     15  C   UNL     1       3.934   9.327   2.170  0.00  0.00    +0.000 C 
ATOM     16  H   UNL     1       4.795   9.144   2.837  0.00  0.00    +0.000 HD
ENDBRANCH  11  15
ENDBRANCH   1  11
TORSDOF 4
ENDMDL
MODEL 3
REMARK VINA RESULT:    -3.285      1.588      2.407
REMARK INTER + INTRA:          -4.001
REMARK INTER:                  -3.938
REMARK INTRA:                  -0.063
REMARK UNBOUND:                -0.044
REMARK  Name = 8063
REMARK  4 active torsions:
REMARK  status: ('A' for Active; 'I' for Inactive)
REMARK    1  A    between atoms: C_2  and  C_3
REMARK    2  A    between atoms: C_2  and  C_4
REMARK    3  A    between atoms: C_3  and  C_5
REMARK    4  A    between atoms: C_4  and  C_6
REMARK                            x       y       z     vdW  Elec       q    Type
REMARK                         _______ _______ _______ _____ _____    ______ ____
ROOT
ATOM      1  C   UNL     1      -2.968   6.803  -9.723  0.00  0.00    +0.000 C 
ATOM      2  H   UNL     1      -3.723   6.018  -9.589  0.00  0.00    +0.000 HD
ATOM      3  H   UNL     1      -1.998   6.352  -9.474  0.00  0.00    +0.000 HD
ENDROOT
BRANCH   1   4
ATOM      4  C   UNL     1      -3.252   7.964  -8.772  0.00  0.00    +0.000 C 
ATOM      5  H   UNL     1      -4.334   8.114  -8.679  0.00  0.00    +0.000 HD
ATOM      6  H   UNL     1      -2.871   7.726  -7.772  0.00  0.00    +0.000 HD
BRANCH   4   7
ATOM      7  C   UNL     1      -2.611   9.254  -9.260  0.00  0.00    +0.000 C 
ATOM      8  H   UNL     1      -3.103  10.118  -8.802  0.00  0.00    +0.000 HD
ATOM      9  H   UNL     1      -2.698   9.348 -10.347  0.00  0.00    +0.000 HD
ATOM     10  H   UNL     1      -1.549   9.289  -8.996  0.00  0.00    +0.000 HD
ENDBRANCH   4   7
ENDBRANCH   1   4
BRANCH   1  11
ATOM     11  C   UNL     1      -2.958   7.265 -11.177  0.00  0.00    +0.000 C 
ATOM     12  H   UNL     1      -3.053   8.355 -11.235  0.00  0.00    +0.000 HD
ATOM     13  H   UNL     1      -3.795   6.820 -11.724  0.00  0.00    +0.000 HD
BRANCH  11  15
ATOM     14  O   UNL     1      -0.717   7.618 -12.040  0.00  0.00    +0.000 OA
ATOM     15  C   UNL     1      -1.689   6.884 -11.900  0.00  0.00    +0.000 C 
ATOM     16  H   UNL     1      -1.683   5.864 -12.322  0.00  0.00    +0.000 HD
ENDBRANCH  11  15
ENDBRANCH   1  11
TORSDOF 4
ENDMDL
MODEL 4
REMARK VINA RESULT:    -3.272     12.648     13.304
REMARK INTER + INTRA:          -3.985
REMARK INTER:                  -3.966
REMARK INTRA:                  -0.019
REMARK UNBOUND:                -0.044
REMARK  Name = 8063
REMARK  4 active torsions:
REMARK  status: ('A' for Active; 'I' for Inactive)
REMARK    1  A    between atoms: C_2  and  C_3
REMARK    2  A    between atoms: C_2  and  C_4
REMARK    3  A    between atoms: C_3  and  C_5
REMARK    4  A    between atoms: C_4  and  C_6
REMARK                            x       y       z     vdW  Elec       q    Type
REMARK                         _______ _______ _______ _____ _____    ______ ____
ROOT
ATOM      1  C   UNL     1       4.570  11.163  -0.480  0.00  0.00    +0.000 C 
ATOM      2  H   UNL     1       4.550  10.165  -0.936  0.00  0.00    +0.000 HD
ATOM      3  H   UNL     1       4.195  11.863  -1.239  0.00  0.00    +0.000 HD
ENDROOT
BRANCH   1   4
ATOM      4  C   UNL     1       6.003  11.534  -0.104  0.00  0.00    +0.000 C 
ATOM      5  H   UNL     1       6.090  12.621   0.007  0.00  0.00    +0.000 HD
ATOM      6  H   UNL     1       6.261  11.088   0.863  0.00  0.00    +0.000 HD
BRANCH   4   7
ATOM      7  C   UNL     1       6.995  11.062  -1.155  0.00  0.00    +0.000 C 
ATOM      8  H   UNL     1       8.002  11.009  -0.729  0.00  0.00    +0.000 HD
ATOM      9  H   UNL     1       7.021  11.750  -2.007  0.00  0.00    +0.000 HD
ATOM     10  H   UNL     1       6.730  10.067  -1.526  0.00  0.00    +0.000 HD
ENDBRANCH   4   7
ENDBRANCH   1   4
BRANCH   1  11
ATOM     11  C   UNL     1       3.651  11.191   0.738  0.00  0.00    +0.000 C 
ATOM     12  H   UNL     1       2.606  11.299   0.430  0.00  0.00    +0.000 HD
ATOM     13  H   UNL     1       3.905  12.035   1.387  0.00  0.00    +0.000 HD
BRANCH  11  15
ATOM     14  O   UNL     1       3.051   9.686   2.546  0.00  0.00    +0.000 OA
ATOM     15  C   UNL     1       3.750   9.934   1.569  0.00  0.00    +0.000 C 
ATOM     16  H   UNL     1       4.523   9.219   1.241  0.00  0.00    +0.000 HD
ENDBRANCH  11  15
ENDBRANCH   1  11
TORSDOF 4
ENDMDL
MODEL 5
REMARK VINA RESULT:    -3.211     11.780     12.356
REMARK INTER + INTRA:          -3.912
REMARK INTER:                  -3.819
REMARK INTRA:                  -0.093
REMARK UNBOUND:                -0.044
REMARK  Name = 8063
REMARK  4 active torsions:
REMARK  status: ('A' for Active; 'I' for Inactive)
REMARK    1  A    between atoms: C_2  and  C_3
REMARK    2  A    between atoms: C_2  and  C_4
REMARK    3  A    between atoms: C_3  and  C_5
REMARK    4  A    between atoms: C_4  and  C_6
REMARK                            x       y       z     vdW  Elec       q    Type
REMARK                         _______ _______ _______ _____ _____    ______ ____
ROOT
ATOM      1  C   UNL     1       3.609  10.457   0.980  0.00  0.00    +0.000 C 
ATOM      2  H   UNL     1       2.607  10.352   1.417  0.00  0.00    +0.000 HD
ATOM      3  H   UNL     1       4.298  10.641   1.815  0.00  0.00    +0.000 HD
ENDROOT
BRANCH   1   4
ATOM      4  C   UNL     1       3.636  11.646   0.022  0.00  0.00    +0.000 C 
ATOM      5  H   UNL     1       2.929  12.413   0.359  0.00  0.00    +0.000 HD
ATOM      6  H   UNL     1       4.633  12.100   0.022  0.00  0.00    +0.000 HD
BRANCH   4   7
ATOM      7  C   UNL     1       3.275  11.229  -1.395  0.00  0.00    +0.000 C 
ATOM      8  H   UNL     1       4.065  10.600  -1.818  0.00  0.00    +0.000 HD
ATOM      9  H   UNL     1       3.152  12.103  -2.043  0.00  0.00    +0.000 HD
ATOM     10  H   UNL     1       2.342  10.657  -1.410  0.00  0.00    +0.000 HD
ENDBRANCH   4   7
ENDBRANCH   1   4
BRANCH   1  11
ATOM     11  C   UNL     1       3.998   9.163   0.271  0.00  0.00    +0.000 C 
ATOM     12  H   UNL     1       3.760   9.222  -0.796  0.00  0.00    +0.000 HD
ATOM     13  H   UNL     1       3.451   8.316   0.697  0.00  0.00    +0.000 HD
BRANCH  11  15
ATOM     14  O   UNL     1       6.331   9.244  -0.397  0.00  0.00    +0.000 OA
ATOM     15  C   UNL     1       5.472   8.857   0.389  0.00  0.00    +0.000 C 
ATOM     16  H   UNL     1       5.750   8.232   1.255  0.00  0.00    +0.000 HD
ENDBRANCH  11  15
ENDBRANCH   1  11
TORSDOF 4
ENDMDL
MODEL 6
REMARK VINA RESULT:    -3.146     26.561     27.447
REMARK INTER + INTRA:          -3.833
REMARK INTER:                  -3.811
REMARK INTRA:                  -0.022
REMARK UNBOUND:                -0.044
REMARK  Name = 8063
REMARK  4 active torsions:
REMARK  status: ('A' for Active; 'I' for Inactive)
REMARK    1  A    between atoms: C_2  and  C_3
REMARK    2  A    between atoms: C_2  and  C_4
REMARK    3  A    between atoms: C_3  and  C_5
REMARK    4  A    between atoms: C_4  and  C_6
REMARK                            x       y       z     vdW  Elec       q    Type
REMARK                         _______ _______ _______ _____ _____    ______ ____
ROOT
ATOM      1  C   UNL     1     -20.421  -0.439   5.560  0.00  0.00    +0.000 C 
ATOM      2  H   UNL     1     -21.062   0.443   5.439  0.00  0.00    +0.000 HD
ATOM      3  H   UNL     1     -19.447  -0.182   5.122  0.00  0.00    +0.000 HD
ENDROOT
BRANCH   1   4
ATOM      4  C   UNL     1     -21.023  -1.625   4.809  0.00  0.00    +0.000 C 
ATOM      5  H   UNL     1     -20.394  -2.512   4.947  0.00  0.00    +0.000 HD
ATOM      6  H   UNL     1     -22.011  -1.861   5.220  0.00  0.00    +0.000 HD
BRANCH   4   7
ATOM      7  C   UNL     1     -21.154  -1.336   3.322  0.00  0.00    +0.000 C 
ATOM      8  H   UNL     1     -20.292  -1.739   2.780  0.00  0.00    +0.000 HD
ATOM      9  H   UNL     1     -21.199  -0.258   3.135  0.00  0.00    +0.000 HD
ATOM     10  H   UNL     1     -22.059  -1.794   2.912  0.00  0.00    +0.000 HD
ENDBRANCH   4   7
ENDBRANCH   1   4
BRANCH   1  11
ATOM     11  C   UNL     1     -20.248  -0.750   7.043  0.00  0.00    +0.000 C 
ATOM     12  H   UNL     1     -19.788   0.097   7.563  0.00  0.00    +0.000 HD
ATOM     13  H   UNL     1     -19.601  -1.623   7.176  0.00  0.00    +0.000 HD
BRANCH  11  15
ATOM     14  O   UNL     1     -21.994  -0.430   8.699  0.00  0.00    +0.000 OA
ATOM     15  C   UNL     1     -21.558  -1.046   7.732  0.00  0.00    +0.000 C 
ATOM     16  H   UNL     1     -22.128  -1.889   7.305  0.00  0.00    +0.000 HD
ENDBRANCH  11  15
ENDBRANCH   1  11
TORSDOF 4
ENDMDL
MODEL 7
REMARK VINA RESULT:    -3.142     13.839     14.422
REMARK INTER + INTRA:          -3.829
REMARK INTER:                  -3.812
REMARK INTRA:                  -0.017
REMARK UNBOUND:                -0.044
REMARK  Name = 8063
REMARK  4 active torsions:
REMARK  status: ('A' for Active; 'I' for Inactive)
REMARK    1  A    between atoms: C_2  and  C_3
REMARK    2  A    between atoms: C_2  and  C_4
REMARK    3  A    between atoms: C_3  and  C_5
REMARK    4  A    between atoms: C_4  and  C_6
REMARK                            x       y       z     vdW  Elec       q    Type
REMARK                         _______ _______ _______ _____ _____    ______ ____
ROOT
ATOM      1  C   UNL     1       5.545   8.570   1.952  0.00  0.00    +0.000 C 
ATOM      2  H   UNL     1       5.637   7.950   1.051  0.00  0.00    +0.000 HD
ATOM      3  H   UNL     1       6.134   9.479   1.769  0.00  0.00    +0.000 HD
ENDROOT
BRANCH   1   4
ATOM      4  C   UNL     1       6.116   7.824   3.156  0.00  0.00    +0.000 C 
ATOM      5  H   UNL     1       7.080   7.374   2.893  0.00  0.00    +0.000 HD
ATOM      6  H   UNL     1       6.300   8.529   3.976  0.00  0.00    +0.000 HD
BRANCH   4   7
ATOM      7  C   UNL     1       5.171   6.733   3.635  0.00  0.00    +0.000 C 
ATOM      8  H   UNL     1       5.645   6.141   4.424  0.00  0.00    +0.000 HD
ATOM      9  H   UNL     1       4.906   6.057   2.816  0.00  0.00    +0.000 HD
ATOM     10  H   UNL     1       4.249   7.162   4.039  0.00  0.00    +0.000 HD
ENDBRANCH   4   7
ENDBRANCH   1   4
BRANCH   1  11
ATOM     11  C   UNL     1       4.083   8.944   2.172  0.00  0.00    +0.000 C 
ATOM     12  H   UNL     1       3.935   9.343   3.181  0.00  0.00    +0.000 HD
ATOM     13  H   UNL     1       3.443   8.064   2.056  0.00  0.00    +0.000 HD
BRANCH  11  15
ATOM     14  O   UNL     1       3.315  11.146   1.496  0.00  0.00    +0.000 OA
ATOM     15  C   UNL     1       3.597   9.990   1.197  0.00  0.00    +0.000 C 
ATOM     16  H   UNL     1       3.498   9.644   0.154  0.00  0.00    +0.000 HD
ENDBRANCH  11  15
ENDBRANCH   1  11
TORSDOF 4
ENDMDL
MODEL 8
REMARK VINA RESULT:    -3.090     11.651     12.121
REMARK INTER + INTRA:          -3.767
REMARK INTER:                  -3.741
REMARK INTRA:                  -0.025
REMARK UNBOUND:                -0.044
REMARK  Name = 8063
REMARK  4 active torsions:
REMARK  status: ('A' for Active; 'I' for Inactive)
REMARK    1  A    between atoms: C_2  and  C_3
REMARK    2  A    between atoms: C_2  and  C_4
REMARK    3  A    between atoms: C_3  and  C_5
REMARK    4  A    between atoms: C_4  and  C_6
REMARK                            x       y       z     vdW  Elec       q    Type
REMARK                         _______ _______ _______ _____ _____    ______ ____
ROOT
ATOM      1  C   UNL     1       3.581  10.740   1.124  0.00  0.00    +0.000 C 
ATOM      2  H   UNL     1       3.611  11.318   2.056  0.00  0.00    +0.000 HD
ATOM      3  H   UNL     1       2.629  10.193   1.123  0.00  0.00    +0.000 HD
ENDROOT
BRANCH   1   4
ATOM      4  C   UNL     1       4.742   9.748   1.091  0.00  0.00    +0.000 C 
ATOM      5  H   UNL     1       4.845   9.327   0.085  0.00  0.00    +0.000 HD
ATOM      6  H   UNL     1       5.680  10.266   1.323  0.00  0.00    +0.000 HD
BRANCH   4   7
ATOM      7  C   UNL     1       4.535   8.616   2.085  0.00  0.00    +0.000 C 
ATOM      8  H   UNL     1       5.499   8.271   2.472  0.00  0.00    +0.000 HD
ATOM      9  H   UNL     1       4.035   7.765   1.611  0.00  0.00    +0.000 HD
ATOM     10  H   UNL     1       3.926   8.944   2.933  0.00  0.00    +0.000 HD
ENDBRANCH   4   7
ENDBRANCH   1   4
BRANCH   1  11
ATOM     11  C   UNL     1       3.627  11.688  -0.071  0.00  0.00    +0.000 C 
ATOM     12  H   UNL     1       4.572  12.241  -0.088  0.00  0.00    +0.000 HD
ATOM     13  H   UNL     1       2.809  12.413  -0.013  0.00  0.00    +0.000 HD
BRANCH  11  15
ATOM     14  O   UNL     1       2.750  11.298  -2.301  0.00  0.00    +0.000 OA
ATOM     15  C   UNL     1       3.502  10.966  -1.391  0.00  0.00    +0.000 C 
ATOM     16  H   UNL     1       4.147  10.077  -1.497  0.00  0.00    +0.000 HD
ENDBRANCH  11  15
ENDBRANCH   1  11
TORSDOF 4
ENDMDL
MODEL 9
REMARK VINA RESULT:    -3.068     18.085     18.672
REMARK INTER + INTRA:          -3.740
REMARK INTER:                  -3.696
REMARK INTRA:                  -0.044
REMARK UNBOUND:                -0.044
REMARK  Name = 8063
REMARK  4 active torsions:
REMARK  status: ('A' for Active; 'I' for Inactive)
REMARK    1  A    between atoms: C_2  and  C_3
REMARK    2  A    between atoms: C_2  and  C_4
REMARK    3  A    between atoms: C_3  and  C_5
REMARK    4  A    between atoms: C_4  and  C_6
REMARK                            x       y       z     vdW  Elec       q    Type
REMARK                         _______ _______ _______ _____ _____    ______ ____
ROOT
ATOM      1  C   UNL     1     -13.338  -3.051  -4.153  0.00  0.00    +0.000 C 
ATOM      2  H   UNL     1     -14.381  -3.073  -4.494  0.00  0.00    +0.000 HD
ATOM      3  H   UNL     1     -12.745  -2.645  -4.983  0.00  0.00    +0.000 HD
ENDROOT
BRANCH   1   4
ATOM      4  C   UNL     1     -12.867  -4.467  -3.831  0.00  0.00    +0.000 C 
ATOM      5  H   UNL     1     -11.933  -4.428  -3.258  0.00  0.00    +0.000 HD
ATOM      6  H   UNL     1     -13.611  -4.973  -3.205  0.00  0.00    +0.000 HD
BRANCH   4   7
ATOM      7  C   UNL     1     -12.639  -5.280  -5.096  0.00  0.00    +0.000 C 
ATOM      8  H   UNL     1     -12.554  -4.617  -5.963  0.00  0.00    +0.000 HD
ATOM      9  H   UNL     1     -13.472  -5.969  -5.275  0.00  0.00    +0.000 HD
ATOM     10  H   UNL     1     -11.718  -5.867  -5.025  0.00  0.00    +0.000 HD
ENDBRANCH   4   7
ENDBRANCH   1   4
BRANCH   1  11
ATOM     11  C   UNL     1     -13.213  -2.134  -2.940  0.00  0.00    +0.000 C 
ATOM     12  H   UNL     1     -13.989  -1.361  -2.960  0.00  0.00    +0.000 HD
ATOM     13  H   UNL     1     -12.237  -1.639  -2.936  0.00  0.00    +0.000 HD
BRANCH  11  15
ATOM     14  O   UNL     1     -14.406  -3.045  -1.031  0.00  0.00    +0.000 OA
ATOM     15  C   UNL     1     -13.350  -2.878  -1.633  0.00  0.00    +0.000 C 
ATOM     16  H   UNL     1     -12.406  -3.277  -1.224  0.00  0.00    +0.000 HD
ENDBRANCH  11  15
ENDBRANCH   1  11
TORSDOF 4
ENDMDL
MODEL 10
REMARK VINA RESULT:    -3.055     12.924     13.432
REMARK INTER + INTRA:          -3.724
REMARK INTER:                  -3.686
REMARK INTRA:                  -0.038
REMARK UNBOUND:                -0.044
REMARK  Name = 8063
REMARK  4 active torsions:
REMARK  status: ('A' for Active; 'I' for Inactive)
REMARK    1  A    between atoms: C_2  and  C_3
REMARK    2  A    between atoms: C_2  and  C_4
REMARK    3  A    between atoms: C_3  and  C_5
REMARK    4  A    between atoms: C_4  and  C_6
REMARK                            x       y       z     vdW  Elec       q    Type
REMARK                         _______ _______ _______ _____ _____    ______ ____
ROOT
ATOM      1  C   UNL     1       5.039   9.090   1.608  0.00  0.00    +0.000 C 
ATOM      2  H   UNL     1       5.214   9.835   2.394  0.00  0.00    +0.000 HD
ATOM      3  H   UNL     1       4.265   8.409   1.987  0.00  0.00    +0.000 HD
ENDROOT
BRANCH   1   4
ATOM      4  C   UNL     1       6.323   8.307   1.341  0.00  0.00    +0.000 C 
ATOM      5  H   UNL     1       7.176   8.822   1.797  0.00  0.00    +0.000 HD
ATOM      6  H   UNL     1       6.257   7.316   1.804  0.00  0.00    +0.000 HD
BRANCH   4   7
ATOM      7  C   UNL     1       6.578   8.147  -0.150  0.00  0.00    +0.000 C 
ATOM      8  H   UNL     1       5.645   8.264  -0.709  0.00  0.00    +0.000 HD
ATOM      9  H   UNL     1       6.987   7.156  -0.374  0.00  0.00    +0.000 HD
ATOM     10  H   UNL     1       7.286   8.900  -0.509  0.00  0.00    +0.000 HD
ENDBRANCH   4   7
ENDBRANCH   1   4
BRANCH   1  11
ATOM     11  C   UNL     1       4.537   9.781   0.345  0.00  0.00    +0.000 C 
ATOM     12  H   UNL     1       3.638   9.284  -0.035  0.00  0.00    +0.000 HD
ATOM     13  H   UNL     1       5.302   9.748  -0.438  0.00  0.00    +0.000 HD
BRANCH  11  15
ATOM     14  O   UNL     1       3.185  11.624   1.165  0.00  0.00    +0.000 OA
ATOM     15  C   UNL     1       4.187  11.232   0.576  0.00  0.00    +0.000 C 
ATOM     16  H   UNL     1       4.910  11.956   0.162  0.00  0.00    +0.000 HD
ENDBRANCH  11  15
ENDBRANCH   1  11
TORSDOF 4
ENDMDL
