MODEL 1
REMARK VINA RESULT:    -4.042      0.000      0.000
REMARK INTER + INTRA:          -5.831
REMARK INTER:                  -5.670
REMARK INTRA:                  -0.161
REMARK UNBOUND:                -0.371
REMARK  Name = 12348
REMARK  7 active torsions:
REMARK  status: ('A' for Active; 'I' for Inactive)
REMARK    1  A    between atoms: O_1  and  C_6
REMARK    2  A    between atoms: O_1  and  C_8
REMARK    3  A    between atoms: C_3  and  C_4
REMARK    4  A    between atoms: C_3  and  C_5
REMARK    5  A    between atoms: C_4  and  C_6
REMARK    6  A    between atoms: C_5  and  C_7
REMARK    7  A    between atoms: C_8  and  C_9
REMARK                            x       y       z     vdW  Elec       q    Type
REMARK                         _______ _______ _______ _____ _____    ______ ____
ROOT
ATOM      1  C   UNL     1       4.920   8.732   1.582  0.00  0.00    +0.000 C 
ATOM      2  H   UNL     1       5.245   7.792   1.118  0.00  0.00    +0.000 HD
ATOM      3  H   UNL     1       5.766   9.423   1.479  0.00  0.00    +0.000 HD
ENDROOT
BRANCH   1   4
ATOM      4  C   UNL     1       4.598   8.508   3.058  0.00  0.00    +0.000 C 
ATOM      5  H   UNL     1       3.526   8.663   3.229  0.00  0.00    +0.000 HD
ATOM      6  H   UNL     1       5.132   9.249   3.666  0.00  0.00    +0.000 HD
BRANCH   4   7
ATOM      7  C   UNL     1       4.993   7.102   3.507  0.00  0.00    +0.000 C 
ATOM      8  H   UNL     1       4.111   6.568   3.880  0.00  0.00    +0.000 HD
ATOM      9  H   UNL     1       5.379   6.533   2.654  0.00  0.00    +0.000 HD
BRANCH   7  10
ATOM     10  C   UNL     1       6.052   7.142   4.598  0.00  0.00    +0.000 C 
ATOM     11  H   UNL     1       6.178   8.157   4.985  0.00  0.00    +0.000 HD
ATOM     12  H   UNL     1       5.782   6.486   5.431  0.00  0.00    +0.000 HD
ATOM     13  H   UNL     1       7.016   6.807   4.201  0.00  0.00    +0.000 HD
ENDBRANCH   7  10
ENDBRANCH   4   7
ENDBRANCH   1   4
BRANCH   1  14
ATOM     14  C   UNL     1       3.724   9.283   0.822  0.00  0.00    +0.000 C 
ATOM     15  H   UNL     1       2.829   8.692   1.052  0.00  0.00    +0.000 HD
ATOM     16  H   UNL     1       3.913   9.242  -0.257  0.00  0.00    +0.000 HD
BRANCH  14  17
ATOM     17  O   UNL     1       3.511  10.632   1.215  0.00  0.00    +0.000 OA
BRANCH  17  19
ATOM     18  O   UNL     1       4.849  12.406   0.584  0.00  0.00    +0.000 OA
ATOM     19  C   UNL     1       3.973  11.585   0.349  0.00  0.00    +0.000 C 
BRANCH  19  20
ATOM     20  C   UNL     1       3.243  11.485  -0.957  0.00  0.00    +0.000 C 
ATOM     21  H   UNL     1       3.605  12.255  -1.642  0.00  0.00    +0.000 HD
ATOM     22  H   UNL     1       2.169  11.592  -0.789  0.00  0.00    +0.000 HD
ATOM     23  H   UNL     1       3.432  10.505  -1.403  0.00  0.00    +0.000 HD
ENDBRANCH  19  20
ENDBRANCH  17  19
ENDBRANCH  14  17
ENDBRANCH   1  14
TORSDOF 7
ENDMDL
MODEL 2
REMARK VINA RESULT:    -3.964      1.628      2.147
REMARK INTER + INTRA:          -5.726
REMARK INTER:                  -5.326
REMARK INTRA:                  -0.400
REMARK UNBOUND:                -0.371
REMARK  Name = 12348
REMARK  7 active torsions:
REMARK  status: ('A' for Active; 'I' for Inactive)
REMARK    1  A    between atoms: O_1  and  C_6
REMARK    2  A    between atoms: O_1  and  C_8
REMARK    3  A    between atoms: C_3  and  C_4
REMARK    4  A    between atoms: C_3  and  C_5
REMARK    5  A    between atoms: C_4  and  C_6
REMARK    6  A    between atoms: C_5  and  C_7
REMARK    7  A    between atoms: C_8  and  C_9
REMARK                            x       y       z     vdW  Elec       q    Type
REMARK                         _______ _______ _______ _____ _____    ______ ____
ROOT
ATOM      1  C   UNL     1       6.825   8.290   0.981  0.00  0.00    +0.000 C 
ATOM      2  H   UNL     1       6.948   7.274   0.587  0.00  0.00    +0.000 HD
ATOM      3  H   UNL     1       7.690   8.858   0.618  0.00  0.00    +0.000 HD
ENDROOT
BRANCH   1   4
ATOM      4  C   UNL     1       6.811   8.267   2.508  0.00  0.00    +0.000 C 
ATOM      5  H   UNL     1       6.246   9.128   2.884  0.00  0.00    +0.000 HD
ATOM      6  H   UNL     1       7.836   8.363   2.886  0.00  0.00    +0.000 HD
BRANCH   4   7
ATOM      7  C   UNL     1       6.192   6.974   3.039  0.00  0.00    +0.000 C 
ATOM      8  H   UNL     1       5.482   6.572   2.307  0.00  0.00    +0.000 HD
ATOM      9  H   UNL     1       6.973   6.219   3.182  0.00  0.00    +0.000 HD
BRANCH   7  10
ATOM     10  C   UNL     1       5.474   7.202   4.360  0.00  0.00    +0.000 C 
ATOM     11  H   UNL     1       5.413   6.276   4.939  0.00  0.00    +0.000 HD
ATOM     12  H   UNL     1       5.994   7.952   4.965  0.00  0.00    +0.000 HD
ATOM     13  H   UNL     1       4.455   7.559   4.180  0.00  0.00    +0.000 HD
ENDBRANCH   7  10
ENDBRANCH   4   7
ENDBRANCH   1   4
BRANCH   1  14
ATOM     14  C   UNL     1       5.550   8.899   0.416  0.00  0.00    +0.000 C 
ATOM     15  H   UNL     1       4.761   8.140   0.368  0.00  0.00    +0.000 HD
ATOM     16  H   UNL     1       5.736   9.287  -0.593  0.00  0.00    +0.000 HD
BRANCH  14  17
ATOM     17  O   UNL     1       5.133   9.961   1.263  0.00  0.00    +0.000 OA
BRANCH  17  19
ATOM     18  O   UNL     1       3.148  11.136   1.142  0.00  0.00    +0.000 OA
ATOM     19  C   UNL     1       3.781  10.120   1.398  0.00  0.00    +0.000 C 
BRANCH  19  20
ATOM     20  C   UNL     1       3.166   8.854   1.912  0.00  0.00    +0.000 C 
ATOM     21  H   UNL     1       3.195   8.087   1.135  0.00  0.00    +0.000 HD
ATOM     22  H   UNL     1       2.138   9.044   2.229  0.00  0.00    +0.000 HD
ATOM     23  H   UNL     1       3.737   8.498   2.774  0.00  0.00    +0.000 HD
ENDBRANCH  19  20
ENDBRANCH  17  19
ENDBRANCH  14  17
ENDBRANCH   1  14
TORSDOF 7
ENDMDL
MODEL 3
REMARK VINA RESULT:    -3.840     13.351     14.462
REMARK INTER + INTRA:          -5.558
REMARK INTER:                  -5.110
REMARK INTRA:                  -0.448
REMARK UNBOUND:                -0.371
REMARK  Name = 12348
REMARK  7 active torsions:
REMARK  status: ('A' for Active; 'I' for Inactive)
REMARK    1  A    between atoms: O_1  and  C_6
REMARK    2  A    between atoms: O_1  and  C_8
REMARK    3  A    between atoms: C_3  and  C_4
REMARK    4  A    between atoms: C_3  and  C_5
REMARK    5  A    between atoms: C_4  and  C_6
REMARK    6  A    between atoms: C_5  and  C_7
REMARK    7  A    between atoms: C_8  and  C_9
REMARK                            x       y       z     vdW  Elec       q    Type
REMARK                         _______ _______ _______ _____ _____    ______ ____
ROOT
ATOM      1  C   UNL     1      -2.795   9.413  -9.806  0.00  0.00    +0.000 C 
ATOM      2  H   UNL     1      -3.277  10.213  -9.230  0.00  0.00    +0.000 HD
ATOM      3  H   UNL     1      -3.238   9.459 -10.809  0.00  0.00    +0.000 HD
ENDROOT
BRANCH   1   4
ATOM      4  C   UNL     1      -3.078   8.056  -9.165  0.00  0.00    +0.000 C 
ATOM      5  H   UNL     1      -4.117   8.022  -8.819  0.00  0.00    +0.000 HD
ATOM      6  H   UNL     1      -2.439   7.927  -8.283  0.00  0.00    +0.000 HD
BRANCH   4   7
ATOM      7  C   UNL     1      -2.825   6.914 -10.148  0.00  0.00    +0.000 C 
ATOM      8  H   UNL     1      -1.787   6.947 -10.500  0.00  0.00    +0.000 HD
ATOM      9  H   UNL     1      -2.967   5.951  -9.645  0.00  0.00    +0.000 HD
BRANCH   7  10
ATOM     10  C   UNL     1      -3.761   6.991 -11.344  0.00  0.00    +0.000 C 
ATOM     11  H   UNL     1      -3.908   8.028 -11.661  0.00  0.00    +0.000 HD
ATOM     12  H   UNL     1      -3.363   6.425 -12.192  0.00  0.00    +0.000 HD
ATOM     13  H   UNL     1      -4.739   6.572 -11.086  0.00  0.00    +0.000 HD
ENDBRANCH   7  10
ENDBRANCH   4   7
ENDBRANCH   1   4
BRANCH   1  14
ATOM     14  C   UNL     1      -1.302   9.690  -9.902  0.00  0.00    +0.000 C 
ATOM     15  H   UNL     1      -0.741   8.752  -9.814  0.00  0.00    +0.000 HD
ATOM     16  H   UNL     1      -0.994  10.369  -9.098  0.00  0.00    +0.000 HD
BRANCH  14  17
ATOM     17  O   UNL     1      -1.026  10.289 -11.160  0.00  0.00    +0.000 OA
BRANCH  17  19
ATOM     18  O   UNL     1      -0.165   8.424 -12.216  0.00  0.00    +0.000 OA
ATOM     19  C   UNL     1      -0.866   9.426 -12.210  0.00  0.00    +0.000 C 
BRANCH  19  20
ATOM     20  C   UNL     1      -1.685   9.886 -13.378  0.00  0.00    +0.000 C 
ATOM     21  H   UNL     1      -1.113  10.603 -13.972  0.00  0.00    +0.000 HD
ATOM     22  H   UNL     1      -2.616  10.334 -13.023  0.00  0.00    +0.000 HD
ATOM     23  H   UNL     1      -1.930   9.027 -14.010  0.00  0.00    +0.000 HD
ENDBRANCH  19  20
ENDBRANCH  17  19
ENDBRANCH  14  17
ENDBRANCH   1  14
TORSDOF 7
ENDMDL
MODEL 4
REMARK VINA RESULT:    -3.837     27.464     28.199
REMARK INTER + INTRA:          -5.555
REMARK INTER:                  -5.390
REMARK INTRA:                  -0.164
REMARK UNBOUND:                -0.371
REMARK  Name = 12348
REMARK  7 active torsions:
REMARK  status: ('A' for Active; 'I' for Inactive)
REMARK    1  A    between atoms: O_1  and  C_6
REMARK    2  A    between atoms: O_1  and  C_8
REMARK    3  A    between atoms: C_3  and  C_4
REMARK    4  A    between atoms: C_3  and  C_5
REMARK    5  A    between atoms: C_4  and  C_6
REMARK    6  A    between atoms: C_5  and  C_7
REMARK    7  A    between atoms: C_8  and  C_9
REMARK                            x       y       z     vdW  Elec       q    Type
REMARK                         _______ _______ _______ _____ _____    ______ ____
ROOT
ATOM      1  C   UNL     1     -20.957  -2.648   5.311  0.00  0.00    +0.000 C 
ATOM      2  H   UNL     1     -21.945  -2.846   5.746  0.00  0.00    +0.000 HD
ATOM      3  H   UNL     1     -20.229  -2.981   6.062  0.00  0.00    +0.000 HD
ENDROOT
BRANCH   1   4
ATOM      4  C   UNL     1     -20.789  -1.155   5.039  0.00  0.00    +0.000 C 
ATOM      5  H   UNL     1     -21.740  -0.734   4.695  0.00  0.00    +0.000 HD
ATOM      6  H   UNL     1     -20.061  -1.009   4.232  0.00  0.00    +0.000 HD
BRANCH   4   7
ATOM      7  C   UNL     1     -20.318  -0.411   6.288  0.00  0.00    +0.000 C 
ATOM      8  H   UNL     1     -19.254  -0.609   6.462  0.00  0.00    +0.000 HD
ATOM      9  H   UNL     1     -20.428   0.670   6.142  0.00  0.00    +0.000 HD
BRANCH   7  10
ATOM     10  C   UNL     1     -21.112  -0.829   7.517  0.00  0.00    +0.000 C 
ATOM     11  H   UNL     1     -21.980  -0.180   7.662  0.00  0.00    +0.000 HD
ATOM     12  H   UNL     1     -21.465  -1.861   7.423  0.00  0.00    +0.000 HD
ATOM     13  H   UNL     1     -20.485  -0.764   8.412  0.00  0.00    +0.000 HD
ENDBRANCH   7  10
ENDBRANCH   4   7
ENDBRANCH   1   4
BRANCH   1  14
ATOM     14  C   UNL     1     -20.787  -3.474   4.045  0.00  0.00    +0.000 C 
ATOM     15  H   UNL     1     -19.968  -3.068   3.440  0.00  0.00    +0.000 HD
ATOM     16  H   UNL     1     -21.712  -3.452   3.457  0.00  0.00    +0.000 HD
BRANCH  14  17
ATOM     17  O   UNL     1     -20.487  -4.814   4.407  0.00  0.00    +0.000 OA
BRANCH  17  19
ATOM     18  O   UNL     1     -18.484  -5.612   5.236  0.00  0.00    +0.000 OA
ATOM     19  C   UNL     1     -19.170  -5.175   4.322  0.00  0.00    +0.000 C 
BRANCH  19  20
ATOM     20  C   UNL     1     -18.670  -4.958   2.926  0.00  0.00    +0.000 C 
ATOM     21  H   UNL     1     -17.763  -4.350   2.948  0.00  0.00    +0.000 HD
ATOM     22  H   UNL     1     -19.445  -4.474   2.327  0.00  0.00    +0.000 HD
ATOM     23  H   UNL     1     -18.431  -5.924   2.472  0.00  0.00    +0.000 HD
ENDBRANCH  19  20
ENDBRANCH  17  19
ENDBRANCH  14  17
ENDBRANCH   1  14
TORSDOF 7
ENDMDL
MODEL 5
REMARK VINA RESULT:    -3.804     13.518     14.672
REMARK INTER + INTRA:          -5.510
REMARK INTER:                  -5.210
REMARK INTRA:                  -0.300
REMARK UNBOUND:                -0.371
REMARK  Name = 12348
REMARK  7 active torsions:
REMARK  status: ('A' for Active; 'I' for Inactive)
REMARK    1  A    between atoms: O_1  and  C_6
REMARK    2  A    between atoms: O_1  and  C_8
REMARK    3  A    between atoms: C_3  and  C_4
REMARK    4  A    between atoms: C_3  and  C_5
REMARK    5  A    between atoms: C_4  and  C_6
REMARK    6  A    between atoms: C_5  and  C_7
REMARK    7  A    between atoms: C_8  and  C_9
REMARK                            x       y       z     vdW  Elec       q    Type
REMARK                         _______ _______ _______ _____ _____    ______ ____
ROOT
ATOM      1  C   UNL     1      -2.206   6.724 -10.959  0.00  0.00    +0.000 C 
ATOM      2  H   UNL     1      -2.298   5.644 -11.132  0.00  0.00    +0.000 HD
ATOM      3  H   UNL     1      -1.368   6.844 -10.261  0.00  0.00    +0.000 HD
ENDROOT
BRANCH   1   4
ATOM      4  C   UNL     1      -3.491   7.271 -10.341  0.00  0.00    +0.000 C 
ATOM      5  H   UNL     1      -4.248   6.480 -10.304  0.00  0.00    +0.000 HD
ATOM      6  H   UNL     1      -3.890   8.072 -10.974  0.00  0.00    +0.000 HD
BRANCH   4   7
ATOM      7  C   UNL     1      -3.244   7.812  -8.932  0.00  0.00    +0.000 C 
ATOM      8  H   UNL     1      -4.187   7.843  -8.375  0.00  0.00    +0.000 HD
ATOM      9  H   UNL     1      -2.568   7.142  -8.389  0.00  0.00    +0.000 HD
BRANCH   7  10
ATOM     10  C   UNL     1      -2.637   9.206  -8.970  0.00  0.00    +0.000 C 
ATOM     11  H   UNL     1      -3.376   9.947  -9.289  0.00  0.00    +0.000 HD
ATOM     12  H   UNL     1      -2.261   9.496  -7.984  0.00  0.00    +0.000 HD
ATOM     13  H   UNL     1      -1.800   9.235  -9.674  0.00  0.00    +0.000 HD
ENDBRANCH   7  10
ENDBRANCH   4   7
ENDBRANCH   1   4
BRANCH   1  14
ATOM     14  C   UNL     1      -1.871   7.419 -12.270  0.00  0.00    +0.000 C 
ATOM     15  H   UNL     1      -2.506   8.305 -12.397  0.00  0.00    +0.000 HD
ATOM     16  H   UNL     1      -2.039   6.735 -13.110  0.00  0.00    +0.000 HD
BRANCH  14  17
ATOM     17  O   UNL     1      -0.508   7.816 -12.245  0.00  0.00    +0.000 OA
BRANCH  17  19
ATOM     18  O   UNL     1       0.456   9.147 -13.868  0.00  0.00    +0.000 OA
ATOM     19  C   UNL     1      -0.221   9.004 -12.859  0.00  0.00    +0.000 C 
BRANCH  19  20
ATOM     20  C   UNL     1      -0.863  10.133 -12.111  0.00  0.00    +0.000 C 
ATOM     21  H   UNL     1      -0.427  11.083 -12.430  0.00  0.00    +0.000 HD
ATOM     22  H   UNL     1      -0.728   9.989 -11.036  0.00  0.00    +0.000 HD
ATOM     23  H   UNL     1      -1.934  10.151 -12.329  0.00  0.00    +0.000 HD
ENDBRANCH  19  20
ENDBRANCH  17  19
ENDBRANCH  14  17
ENDBRANCH   1  14
TORSDOF 7
ENDMDL
MODEL 6
REMARK VINA RESULT:    -3.745     13.564     14.747
REMARK INTER + INTRA:          -5.430
REMARK INTER:                  -5.052
REMARK INTRA:                  -0.378
REMARK UNBOUND:                -0.371
REMARK  Name = 12348
REMARK  7 active torsions:
REMARK  status: ('A' for Active; 'I' for Inactive)
REMARK    1  A    between atoms: O_1  and  C_6
REMARK    2  A    between atoms: O_1  and  C_8
REMARK    3  A    between atoms: C_3  and  C_4
REMARK    4  A    between atoms: C_3  and  C_5
REMARK    5  A    between atoms: C_4  and  C_6
REMARK    6  A    between atoms: C_5  and  C_7
REMARK    7  A    between atoms: C_8  and  C_9
REMARK                            x       y       z     vdW  Elec       q    Type
REMARK                         _______ _______ _______ _____ _____    ______ ____
ROOT
ATOM      1  C   UNL     1      -1.234  10.076 -10.263  0.00  0.00    +0.000 C 
ATOM      2  H   UNL     1      -0.566   9.395  -9.720  0.00  0.00    +0.000 HD
ATOM      3  H   UNL     1      -1.007  11.081  -9.884  0.00  0.00    +0.000 HD
ENDROOT
BRANCH   1   4
ATOM      4  C   UNL     1      -2.692   9.722  -9.981  0.00  0.00    +0.000 C 
ATOM      5  H   UNL     1      -3.138   9.261 -10.870  0.00  0.00    +0.000 HD
ATOM      6  H   UNL     1      -3.258  10.639  -9.775  0.00  0.00    +0.000 HD
BRANCH   4   7
ATOM      7  C   UNL     1      -2.814   8.771  -8.792  0.00  0.00    +0.000 C 
ATOM      8  H   UNL     1      -1.856   8.709  -8.264  0.00  0.00    +0.000 HD
ATOM      9  H   UNL     1      -3.552   9.156  -8.080  0.00  0.00    +0.000 HD
BRANCH   7  10
ATOM     10  C   UNL     1      -3.233   7.377  -9.234  0.00  0.00    +0.000 C 
ATOM     11  H   UNL     1      -3.682   7.401 -10.231  0.00  0.00    +0.000 HD
ATOM     12  H   UNL     1      -2.374   6.699  -9.259  0.00  0.00    +0.000 HD
ATOM     13  H   UNL     1      -3.971   6.965  -8.538  0.00  0.00    +0.000 HD
ENDBRANCH   7  10
ENDBRANCH   4   7
ENDBRANCH   1   4
BRANCH   1  14
ATOM     14  C   UNL     1      -0.917  10.016 -11.749  0.00  0.00    +0.000 C 
ATOM     15  H   UNL     1       0.105   9.648 -11.900  0.00  0.00    +0.000 HD
ATOM     16  H   UNL     1      -1.007  11.014 -12.193  0.00  0.00    +0.000 HD
BRANCH  14  17
ATOM     17  O   UNL     1      -1.834   9.133 -12.380  0.00  0.00    +0.000 OA
BRANCH  17  19
ATOM     18  O   UNL     1      -0.629   8.279 -14.156  0.00  0.00    +0.000 OA
ATOM     19  C   UNL     1      -1.279   8.132 -13.130  0.00  0.00    +0.000 C 
BRANCH  19  20
ATOM     20  C   UNL     1      -1.581   6.801 -12.510  0.00  0.00    +0.000 C 
ATOM     21  H   UNL     1      -0.668   6.374 -12.089  0.00  0.00    +0.000 HD
ATOM     22  H   UNL     1      -2.010   6.133 -13.259  0.00  0.00    +0.000 HD
ATOM     23  H   UNL     1      -2.307   6.933 -11.703  0.00  0.00    +0.000 HD
ENDBRANCH  19  20
ENDBRANCH  17  19
ENDBRANCH  14  17
ENDBRANCH   1  14
TORSDOF 7
ENDMDL
MODEL 7
REMARK VINA RESULT:    -3.535     27.362     28.074
REMARK INTER + INTRA:          -5.146
REMARK INTER:                  -5.031
REMARK INTRA:                  -0.115
REMARK UNBOUND:                -0.371
REMARK  Name = 12348
REMARK  7 active torsions:
REMARK  status: ('A' for Active; 'I' for Inactive)
REMARK    1  A    between atoms: O_1  and  C_6
REMARK    2  A    between atoms: O_1  and  C_8
REMARK    3  A    between atoms: C_3  and  C_4
REMARK    4  A    between atoms: C_3  and  C_5
REMARK    5  A    between atoms: C_4  and  C_6
REMARK    6  A    between atoms: C_5  and  C_7
REMARK    7  A    between atoms: C_8  and  C_9
REMARK                            x       y       z     vdW  Elec       q    Type
REMARK                         _______ _______ _______ _____ _____    ______ ____
ROOT
ATOM      1  C   UNL     1     -20.435  -3.587   4.623  0.00  0.00    +0.000 C 
ATOM      2  H   UNL     1     -21.145  -3.876   3.838  0.00  0.00    +0.000 HD
ATOM      3  H   UNL     1     -19.821  -2.788   4.190  0.00  0.00    +0.000 HD
ENDROOT
BRANCH   1   4
ATOM      4  C   UNL     1     -19.558  -4.778   5.007  0.00  0.00    +0.000 C 
ATOM      5  H   UNL     1     -20.048  -5.356   5.799  0.00  0.00    +0.000 HD
ATOM      6  H   UNL     1     -18.606  -4.416   5.412  0.00  0.00    +0.000 HD
BRANCH   4   7
ATOM      7  C   UNL     1     -19.289  -5.681   3.803  0.00  0.00    +0.000 C 
ATOM      8  H   UNL     1     -18.547  -6.443   4.067  0.00  0.00    +0.000 HD
ATOM      9  H   UNL     1     -20.208  -6.207   3.519  0.00  0.00    +0.000 HD
BRANCH   7  10
ATOM     10  C   UNL     1     -18.786  -4.883   2.610  0.00  0.00    +0.000 C 
ATOM     11  H   UNL     1     -18.813  -5.484   1.697  0.00  0.00    +0.000 HD
ATOM     12  H   UNL     1     -19.394  -3.987   2.453  0.00  0.00    +0.000 HD
ATOM     13  H   UNL     1     -17.751  -4.565   2.778  0.00  0.00    +0.000 HD
ENDBRANCH   7  10
ENDBRANCH   4   7
ENDBRANCH   1   4
BRANCH   1  14
ATOM     14  C   UNL     1     -21.198  -3.042   5.821  0.00  0.00    +0.000 C 
ATOM     15  H   UNL     1     -21.658  -3.866   6.379  0.00  0.00    +0.000 HD
ATOM     16  H   UNL     1     -21.984  -2.356   5.483  0.00  0.00    +0.000 HD
BRANCH  14  17
ATOM     17  O   UNL     1     -20.293  -2.347   6.666  0.00  0.00    +0.000 OA
BRANCH  17  19
ATOM     18  O   UNL     1     -21.070  -0.646   8.022  0.00  0.00    +0.000 OA
ATOM     19  C   UNL     1     -20.624  -1.051   6.957  0.00  0.00    +0.000 C 
BRANCH  19  20
ATOM     20  C   UNL     1     -20.358  -0.176   5.770  0.00  0.00    +0.000 C 
ATOM     21  H   UNL     1     -19.527   0.499   5.986  0.00  0.00    +0.000 HD
ATOM     22  H   UNL     1     -21.259   0.389   5.518  0.00  0.00    +0.000 HD
ATOM     23  H   UNL     1     -20.087  -0.800   4.913  0.00  0.00    +0.000 HD
ENDBRANCH  19  20
ENDBRANCH  17  19
ENDBRANCH  14  17
ENDBRANCH   1  14
TORSDOF 7
ENDMDL
MODEL 8
REMARK VINA RESULT:    -3.517      1.675      2.327
REMARK INTER + INTRA:          -5.123
REMARK INTER:                  -4.980
REMARK INTRA:                  -0.143
REMARK UNBOUND:                -0.371
REMARK  Name = 12348
REMARK  7 active torsions:
REMARK  status: ('A' for Active; 'I' for Inactive)
REMARK    1  A    between atoms: O_1  and  C_6
REMARK    2  A    between atoms: O_1  and  C_8
REMARK    3  A    between atoms: C_3  and  C_4
REMARK    4  A    between atoms: C_3  and  C_5
REMARK    5  A    between atoms: C_4  and  C_6
REMARK    6  A    between atoms: C_5  and  C_7
REMARK    7  A    between atoms: C_8  and  C_9
REMARK                            x       y       z     vdW  Elec       q    Type
REMARK                         _______ _______ _______ _____ _____    ______ ____
ROOT
ATOM      1  C   UNL     1       6.008   7.820   2.754  0.00  0.00    +0.000 C 
ATOM      2  H   UNL     1       5.764   6.889   3.280  0.00  0.00    +0.000 HD
ATOM      3  H   UNL     1       6.359   7.519   1.759  0.00  0.00    +0.000 HD
ENDROOT
BRANCH   1   4
ATOM      4  C   UNL     1       7.109   8.574   3.497  0.00  0.00    +0.000 C 
ATOM      5  H   UNL     1       6.963   9.653   3.376  0.00  0.00    +0.000 HD
ATOM      6  H   UNL     1       8.083   8.328   3.056  0.00  0.00    +0.000 HD
BRANCH   4   7
ATOM      7  C   UNL     1       7.120   8.219   4.984  0.00  0.00    +0.000 C 
ATOM      8  H   UNL     1       6.092   8.163   5.361  0.00  0.00    +0.000 HD
ATOM      9  H   UNL     1       7.574   7.232   5.128  0.00  0.00    +0.000 HD
BRANCH   7  10
ATOM     10  C   UNL     1       7.895   9.246   5.795  0.00  0.00    +0.000 C 
ATOM     11  H   UNL     1       8.687   9.704   5.194  0.00  0.00    +0.000 HD
ATOM     12  H   UNL     1       7.235  10.039   6.158  0.00  0.00    +0.000 HD
ATOM     13  H   UNL     1       8.361   8.768   6.663  0.00  0.00    +0.000 HD
ENDBRANCH   7  10
ENDBRANCH   4   7
ENDBRANCH   1   4
BRANCH   1  14
ATOM     14  C   UNL     1       4.749   8.663   2.609  0.00  0.00    +0.000 C 
ATOM     15  H   UNL     1       4.803   9.534   3.272  0.00  0.00    +0.000 HD
ATOM     16  H   UNL     1       3.867   8.067   2.871  0.00  0.00    +0.000 HD
BRANCH  14  17
ATOM     17  O   UNL     1       4.642   9.101   1.262  0.00  0.00    +0.000 OA
BRANCH  17  19
ATOM     18  O   UNL     1       3.120  10.813   1.558  0.00  0.00    +0.000 OA
ATOM     19  C   UNL     1       4.156  10.367   1.083  0.00  0.00    +0.000 C 
BRANCH  19  20
ATOM     20  C   UNL     1       5.085  11.153   0.207  0.00  0.00    +0.000 C 
ATOM     21  H   UNL     1       6.102  11.094   0.602  0.00  0.00    +0.000 HD
ATOM     22  H   UNL     1       4.752  12.191   0.153  0.00  0.00    +0.000 HD
ATOM     23  H   UNL     1       5.077  10.730  -0.801  0.00  0.00    +0.000 HD
ENDBRANCH  19  20
ENDBRANCH  17  19
ENDBRANCH  14  17
ENDBRANCH   1  14
TORSDOF 7
ENDMDL
MODEL 9
REMARK VINA RESULT:    -3.459     13.476     14.606
REMARK INTER + INTRA:          -5.044
REMARK INTER:                  -4.917
REMARK INTRA:                  -0.127
REMARK UNBOUND:                -0.371
REMARK  Name = 12348
REMARK  7 active torsions:
REMARK  status: ('A' for Active; 'I' for Inactive)
REMARK    1  A    between atoms: O_1  and  C_6
REMARK    2  A    between atoms: O_1  and  C_8
REMARK    3  A    between atoms: C_3  and  C_4
REMARK    4  A    between atoms: C_3  and  C_5
REMARK    5  A    between atoms: C_4  and  C_6
REMARK    6  A    between atoms: C_5  and  C_7
REMARK    7  A    between atoms: C_8  and  C_9
REMARK                            x       y       z     vdW  Elec       q    Type
REMARK                         _______ _______ _______ _____ _____    ______ ____
ROOT
ATOM      1  C   UNL     1      -4.169   6.669  -9.531  0.00  0.00    +0.000 C 
ATOM      2  H   UNL     1      -4.063   5.732  -8.970  0.00  0.00    +0.000 HD
ATOM      3  H   UNL     1      -4.490   7.421  -8.799  0.00  0.00    +0.000 HD
ENDROOT
BRANCH   1   4
ATOM      4  C   UNL     1      -5.223   6.515 -10.626  0.00  0.00    +0.000 C 
ATOM      5  H   UNL     1      -4.861   5.816 -11.389  0.00  0.00    +0.000 HD
ATOM      6  H   UNL     1      -5.381   7.480 -11.121  0.00  0.00    +0.000 HD
BRANCH   4   7
ATOM      7  C   UNL     1      -6.548   6.012 -10.055  0.00  0.00    +0.000 C 
ATOM      8  H   UNL     1      -7.290   6.818 -10.070  0.00  0.00    +0.000 HD
ATOM      9  H   UNL     1      -6.939   5.200 -10.678  0.00  0.00    +0.000 HD
BRANCH   7  10
ATOM     10  C   UNL     1      -6.385   5.509  -8.629  0.00  0.00    +0.000 C 
ATOM     11  H   UNL     1      -7.047   6.047  -7.944  0.00  0.00    +0.000 HD
ATOM     12  H   UNL     1      -6.613   4.440  -8.561  0.00  0.00    +0.000 HD
ATOM     13  H   UNL     1      -5.354   5.657  -8.292  0.00  0.00    +0.000 HD
ENDBRANCH   7  10
ENDBRANCH   4   7
ENDBRANCH   1   4
BRANCH   1  14
ATOM     14  C   UNL     1      -2.817   7.070 -10.104  0.00  0.00    +0.000 C 
ATOM     15  H   UNL     1      -2.525   6.372 -10.898  0.00  0.00    +0.000 HD
ATOM     16  H   UNL     1      -2.056   7.053  -9.315  0.00  0.00    +0.000 HD
BRANCH  14  17
ATOM     17  O   UNL     1      -2.916   8.381 -10.640  0.00  0.00    +0.000 OA
BRANCH  17  19
ATOM     18  O   UNL     1      -2.842   9.745  -8.777  0.00  0.00    +0.000 OA
ATOM     19  C   UNL     1      -2.406   9.384  -9.862  0.00  0.00    +0.000 C 
BRANCH  19  20
ATOM     20  C   UNL     1      -1.213   9.995 -10.533  0.00  0.00    +0.000 C 
ATOM     21  H   UNL     1      -1.521  10.487 -11.459  0.00  0.00    +0.000 HD
ATOM     22  H   UNL     1      -0.468   9.223 -10.736  0.00  0.00    +0.000 HD
ATOM     23  H   UNL     1      -0.769  10.744  -9.872  0.00  0.00    +0.000 HD
ENDBRANCH  19  20
ENDBRANCH  17  19
ENDBRANCH  14  17
ENDBRANCH   1  14
TORSDOF 7
ENDMDL
MODEL 10
REMARK VINA RESULT:    -3.411      3.325      4.087
REMARK INTER + INTRA:          -4.979
REMARK INTER:                  -4.607
REMARK INTRA:                  -0.371
REMARK UNBOUND:                -0.371
REMARK  Name = 12348
REMARK  7 active torsions:
REMARK  status: ('A' for Active; 'I' for Inactive)
REMARK    1  A    between atoms: O_1  and  C_6
REMARK    2  A    between atoms: O_1  and  C_8
REMARK    3  A    between atoms: C_3  and  C_4
REMARK    4  A    between atoms: C_3  and  C_5
REMARK    5  A    between atoms: C_4  and  C_6
REMARK    6  A    between atoms: C_5  and  C_7
REMARK    7  A    between atoms: C_8  and  C_9
REMARK                            x       y       z     vdW  Elec       q    Type
REMARK                         _______ _______ _______ _____ _____    ______ ____
ROOT
ATOM      1  C   UNL     1       5.432   7.593   4.642  0.00  0.00    +0.000 C 
ATOM      2  H   UNL     1       4.384   7.851   4.444  0.00  0.00    +0.000 HD
ATOM      3  H   UNL     1       5.404   6.722   5.309  0.00  0.00    +0.000 HD
ENDROOT
BRANCH   1   4
ATOM      4  C   UNL     1       6.144   8.759   5.324  0.00  0.00    +0.000 C 
ATOM      5  H   UNL     1       5.734   8.903   6.330  0.00  0.00    +0.000 HD
ATOM      6  H   UNL     1       5.957   9.682   4.762  0.00  0.00    +0.000 HD
BRANCH   4   7
ATOM      7  C   UNL     1       7.651   8.515   5.413  0.00  0.00    +0.000 C 
ATOM      8  H   UNL     1       7.856   7.706   6.124  0.00  0.00    +0.000 HD
ATOM      9  H   UNL     1       8.035   8.196   4.438  0.00  0.00    +0.000 HD
BRANCH   7  10
ATOM     10  C   UNL     1       8.392   9.768   5.853  0.00  0.00    +0.000 C 
ATOM     11  H   UNL     1       7.862  10.670   5.533  0.00  0.00    +0.000 HD
ATOM     12  H   UNL     1       8.499   9.798   6.942  0.00  0.00    +0.000 HD
ATOM     13  H   UNL     1       9.394   9.788   5.413  0.00  0.00    +0.000 HD
ENDBRANCH   7  10
ENDBRANCH   4   7
ENDBRANCH   1   4
BRANCH   1  14
ATOM     14  C   UNL     1       6.112   7.203   3.337  0.00  0.00    +0.000 C 
ATOM     15  H   UNL     1       5.784   6.204   3.028  0.00  0.00    +0.000 HD
ATOM     16  H   UNL     1       7.200   7.199   3.469  0.00  0.00    +0.000 HD
BRANCH  14  17
ATOM     17  O   UNL     1       5.759   8.147   2.336  0.00  0.00    +0.000 OA
BRANCH  17  19
ATOM     18  O   UNL     1       6.595   7.755   0.218  0.00  0.00    +0.000 OA
ATOM     19  C   UNL     1       6.657   8.296   1.314  0.00  0.00    +0.000 C 
BRANCH  19  20
ATOM     20  C   UNL     1       7.750   9.233   1.727  0.00  0.00    +0.000 C 
ATOM     21  H   UNL     1       8.597   9.139   1.043  0.00  0.00    +0.000 HD
ATOM     22  H   UNL     1       8.057   9.015   2.752  0.00  0.00    +0.000 HD
ATOM     23  H   UNL     1       7.382  10.262   1.685  0.00  0.00    +0.000 HD
ENDBRANCH  19  20
ENDBRANCH  17  19
ENDBRANCH  14  17
ENDBRANCH   1  14
TORSDOF 7
ENDMDL
