MODEL 1
REMARK VINA RESULT:    -4.899      0.000      0.000
REMARK INTER + INTRA:          -5.342
REMARK INTER:                  -5.326
REMARK INTRA:                  -0.016
REMARK UNBOUND:                -0.014
REMARK  Name = 244
REMARK  2 active torsions:
REMARK  status: ('A' for Active; 'I' for Inactive)
REMARK    1  A    between atoms: O_1  and  C_3
REMARK    2  A    between atoms: C_2  and  C_3
REMARK                            x       y       z     vdW  Elec       q    Type
REMARK                         _______ _______ _______ _____ _____    ______ ____
ROOT
ATOM      1  C   UNL     1      -1.665   8.718 -10.951  0.00  0.00    +0.000 A 
ATOM      2  C   UNL     1      -2.062   7.405 -11.203  0.00  0.00    +0.000 A 
ATOM      3  C   UNL     1      -2.066   9.356  -9.777  0.00  0.00    +0.000 A 
ATOM      4  C   UNL     1      -2.861   6.729 -10.280  0.00  0.00    +0.000 A 
ATOM      5  C   UNL     1      -2.864   8.679  -8.854  0.00  0.00    +0.000 A 
ATOM      6  C   UNL     1      -3.261   7.366  -9.106  0.00  0.00    +0.000 A 
ATOM      7  H   UNL     1      -1.754   6.897 -12.112  0.00  0.00    +0.000 HD
ATOM      8  H   UNL     1      -1.761  10.378  -9.569  0.00  0.00    +0.000 HD
ATOM      9  H   UNL     1      -3.169   5.706 -10.476  0.00  0.00    +0.000 HD
ATOM     10  H   UNL     1      -3.176   9.175  -7.940  0.00  0.00    +0.000 HD
ATOM     11  H   UNL     1      -3.883   6.840  -8.387  0.00  0.00    +0.000 HD
ENDROOT
BRANCH   1  12
ATOM     12  C   UNL     1      -0.811   9.441 -11.938  0.00  0.00    +0.000 C 
ATOM     13  H   UNL     1      -1.392   9.768 -12.807  0.00  0.00    +0.000 HD
ATOM     14  H   UNL     1      -0.358  10.335 -11.496  0.00  0.00    +0.000 HD
BRANCH  12  15
ATOM     15  O   UNL     1       0.230   8.579 -12.383  0.00  0.00    +0.000 OA
ATOM     16  H   UNL     1      -0.136   7.683 -12.480  0.00  0.00    +0.000 HD
ENDBRANCH  12  15
ENDBRANCH   1  12
TORSDOF 2
ENDMDL
MODEL 2
REMARK VINA RESULT:    -4.620     26.185     26.774
REMARK INTER + INTRA:          -5.039
REMARK INTER:                  -5.019
REMARK INTRA:                  -0.020
REMARK UNBOUND:                -0.014
REMARK  Name = 244
REMARK  2 active torsions:
REMARK  status: ('A' for Active; 'I' for Inactive)
REMARK    1  A    between atoms: O_1  and  C_3
REMARK    2  A    between atoms: C_2  and  C_3
REMARK                            x       y       z     vdW  Elec       q    Type
REMARK                         _______ _______ _______ _____ _____    ______ ____
ROOT
ATOM      1  C   UNL     1     -19.997  -4.306   4.442  0.00  0.00    +0.000 A 
ATOM      2  C   UNL     1     -20.372  -3.768   3.211  0.00  0.00    +0.000 A 
ATOM      3  C   UNL     1     -20.376  -3.670   5.625  0.00  0.00    +0.000 A 
ATOM      4  C   UNL     1     -21.126  -2.595   3.162  0.00  0.00    +0.000 A 
ATOM      5  C   UNL     1     -21.131  -2.498   5.576  0.00  0.00    +0.000 A 
ATOM      6  C   UNL     1     -21.506  -1.961   4.345  0.00  0.00    +0.000 A 
ATOM      7  H   UNL     1     -20.085  -4.255   2.283  0.00  0.00    +0.000 HD
ATOM      8  H   UNL     1     -20.093  -4.080   6.591  0.00  0.00    +0.000 HD
ATOM      9  H   UNL     1     -21.418  -2.178   2.203  0.00  0.00    +0.000 HD
ATOM     10  H   UNL     1     -21.427  -2.004   6.496  0.00  0.00    +0.000 HD
ATOM     11  H   UNL     1     -22.093  -1.048   4.307  0.00  0.00    +0.000 HD
ENDROOT
BRANCH   1  12
ATOM     12  C   UNL     1     -19.191  -5.559   4.495  0.00  0.00    +0.000 C 
ATOM     13  H   UNL     1     -19.825  -6.448   4.404  0.00  0.00    +0.000 HD
ATOM     14  H   UNL     1     -18.460  -5.599   3.680  0.00  0.00    +0.000 HD
BRANCH  12  15
ATOM     15  O   UNL     1     -18.493  -5.621   5.732  0.00  0.00    +0.000 OA
ATOM     16  H   UNL     1     -18.077  -4.756   5.891  0.00  0.00    +0.000 HD
ENDBRANCH  12  15
ENDBRANCH   1  12
TORSDOF 2
ENDMDL
MODEL 3
REMARK VINA RESULT:    -4.595      1.897      2.580
REMARK INTER + INTRA:          -5.011
REMARK INTER:                  -4.996
REMARK INTRA:                  -0.016
REMARK UNBOUND:                -0.014
REMARK  Name = 244
REMARK  2 active torsions:
REMARK  status: ('A' for Active; 'I' for Inactive)
REMARK    1  A    between atoms: O_1  and  C_3
REMARK    2  A    between atoms: C_2  and  C_3
REMARK                            x       y       z     vdW  Elec       q    Type
REMARK                         _______ _______ _______ _____ _____    ______ ____
ROOT
ATOM      1  C   UNL     1      -3.316   6.962 -10.991  0.00  0.00    +0.000 A 
ATOM      2  C   UNL     1      -4.590   6.741 -11.515  0.00  0.00    +0.000 A 
ATOM      3  C   UNL     1      -3.092   6.828  -9.621  0.00  0.00    +0.000 A 
ATOM      4  C   UNL     1      -5.640   6.385 -10.668  0.00  0.00    +0.000 A 
ATOM      5  C   UNL     1      -4.143   6.471  -8.774  0.00  0.00    +0.000 A 
ATOM      6  C   UNL     1      -5.416   6.250  -9.299  0.00  0.00    +0.000 A 
ATOM      7  H   UNL     1      -4.776   6.840 -12.580  0.00  0.00    +0.000 HD
ATOM      8  H   UNL     1      -2.104   6.995  -9.201  0.00  0.00    +0.000 HD
ATOM      9  H   UNL     1      -6.631   6.212 -11.077  0.00  0.00    +0.000 HD
ATOM     10  H   UNL     1      -3.969   6.365  -7.708  0.00  0.00    +0.000 HD
ATOM     11  H   UNL     1      -6.233   5.972  -8.639  0.00  0.00    +0.000 HD
ENDROOT
BRANCH   1  12
ATOM     12  C   UNL     1      -2.193   7.343 -11.896  0.00  0.00    +0.000 C 
ATOM     13  H   UNL     1      -2.450   7.172 -12.947  0.00  0.00    +0.000 HD
ATOM     14  H   UNL     1      -1.940   8.404 -11.794  0.00  0.00    +0.000 HD
BRANCH  12  15
ATOM     15  O   UNL     1      -1.044   6.570 -11.574  0.00  0.00    +0.000 OA
ATOM     16  H   UNL     1      -1.225   6.081 -10.753  0.00  0.00    +0.000 HD
ENDBRANCH  12  15
ENDBRANCH   1  12
TORSDOF 2
ENDMDL
MODEL 4
REMARK VINA RESULT:    -4.449     13.560     14.359
REMARK INTER + INTRA:          -4.853
REMARK INTER:                  -4.841
REMARK INTRA:                  -0.012
REMARK UNBOUND:                -0.014
REMARK  Name = 244
REMARK  2 active torsions:
REMARK  status: ('A' for Active; 'I' for Inactive)
REMARK    1  A    between atoms: O_1  and  C_3
REMARK    2  A    between atoms: C_2  and  C_3
REMARK                            x       y       z     vdW  Elec       q    Type
REMARK                         _______ _______ _______ _____ _____    ______ ____
ROOT
ATOM      1  C   UNL     1       4.486   9.212   1.375  0.00  0.00    +0.000 A 
ATOM      2  C   UNL     1       3.956   8.569   2.494  0.00  0.00    +0.000 A 
ATOM      3  C   UNL     1       5.801   8.961   0.984  0.00  0.00    +0.000 A 
ATOM      4  C   UNL     1       4.742   7.675   3.222  0.00  0.00    +0.000 A 
ATOM      5  C   UNL     1       6.587   8.066   1.711  0.00  0.00    +0.000 A 
ATOM      6  C   UNL     1       6.057   7.423   2.830  0.00  0.00    +0.000 A 
ATOM      7  H   UNL     1       2.933   8.754   2.808  0.00  0.00    +0.000 HD
ATOM      8  H   UNL     1       6.224   9.454   0.113  0.00  0.00    +0.000 HD
ATOM      9  H   UNL     1       4.329   7.174   4.093  0.00  0.00    +0.000 HD
ATOM     10  H   UNL     1       7.610   7.870   1.406  0.00  0.00    +0.000 HD
ATOM     11  H   UNL     1       6.669   6.727   3.396  0.00  0.00    +0.000 HD
ENDROOT
BRANCH   1  12
ATOM     12  C   UNL     1       3.645  10.168   0.597  0.00  0.00    +0.000 C 
ATOM     13  H   UNL     1       4.167  10.522  -0.298  0.00  0.00    +0.000 HD
ATOM     14  H   UNL     1       2.712   9.701   0.265  0.00  0.00    +0.000 HD
BRANCH  12  15
ATOM     15  O   UNL     1       3.326  11.288   1.413  0.00  0.00    +0.000 OA
ATOM     16  H   UNL     1       2.641  11.017   2.049  0.00  0.00    +0.000 HD
ENDBRANCH  12  15
ENDBRANCH   1  12
TORSDOF 2
ENDMDL
MODEL 5
REMARK VINA RESULT:    -4.406     16.743     17.501
REMARK INTER + INTRA:          -4.806
REMARK INTER:                  -4.795
REMARK INTRA:                  -0.010
REMARK UNBOUND:                -0.014
REMARK  Name = 244
REMARK  2 active torsions:
REMARK  status: ('A' for Active; 'I' for Inactive)
REMARK    1  A    between atoms: O_1  and  C_3
REMARK    2  A    between atoms: C_2  and  C_3
REMARK                            x       y       z     vdW  Elec       q    Type
REMARK                         _______ _______ _______ _____ _____    ______ ____
ROOT
ATOM      1  C   UNL     1       7.284   8.479   4.770  0.00  0.00    +0.000 A 
ATOM      2  C   UNL     1       6.371   7.431   4.883  0.00  0.00    +0.000 A 
ATOM      3  C   UNL     1       7.625   8.974   3.511  0.00  0.00    +0.000 A 
ATOM      4  C   UNL     1       5.799   6.877   3.737  0.00  0.00    +0.000 A 
ATOM      5  C   UNL     1       7.053   8.422   2.365  0.00  0.00    +0.000 A 
ATOM      6  C   UNL     1       6.140   7.374   2.479  0.00  0.00    +0.000 A 
ATOM      7  H   UNL     1       6.096   7.038   5.857  0.00  0.00    +0.000 HD
ATOM      8  H   UNL     1       8.334   9.793   3.410  0.00  0.00    +0.000 HD
ATOM      9  H   UNL     1       5.087   6.062   3.826  0.00  0.00    +0.000 HD
ATOM     10  H   UNL     1       7.317   8.807   1.386  0.00  0.00    +0.000 HD
ATOM     11  H   UNL     1       5.694   6.943   1.587  0.00  0.00    +0.000 HD
ENDROOT
BRANCH   1  12
ATOM     12  C   UNL     1       7.896   9.071   5.995  0.00  0.00    +0.000 C 
ATOM     13  H   UNL     1       8.105   8.304   6.749  0.00  0.00    +0.000 HD
ATOM     14  H   UNL     1       8.845   9.568   5.768  0.00  0.00    +0.000 HD
BRANCH  12  15
ATOM     15  O   UNL     1       7.005  10.029   6.553  0.00  0.00    +0.000 OA
ATOM     16  H   UNL     1       7.040  10.833   6.006  0.00  0.00    +0.000 HD
ENDBRANCH  12  15
ENDBRANCH   1  12
TORSDOF 2
ENDMDL
MODEL 6
REMARK VINA RESULT:    -4.404     16.952     18.503
REMARK INTER + INTRA:          -4.804
REMARK INTER:                  -4.790
REMARK INTRA:                  -0.014
REMARK UNBOUND:                -0.014
REMARK  Name = 244
REMARK  2 active torsions:
REMARK  status: ('A' for Active; 'I' for Inactive)
REMARK    1  A    between atoms: O_1  and  C_3
REMARK    2  A    between atoms: C_2  and  C_3
REMARK                            x       y       z     vdW  Elec       q    Type
REMARK                         _______ _______ _______ _____ _____    ______ ____
ROOT
ATOM      1  C   UNL     1      -8.302  11.287   6.685  0.00  0.00    +0.000 A 
ATOM      2  C   UNL     1      -7.730  12.460   7.179  0.00  0.00    +0.000 A 
ATOM      3  C   UNL     1      -8.078  10.907   5.361  0.00  0.00    +0.000 A 
ATOM      4  C   UNL     1      -6.934  13.251   6.351  0.00  0.00    +0.000 A 
ATOM      5  C   UNL     1      -7.282  11.698   4.533  0.00  0.00    +0.000 A 
ATOM      6  C   UNL     1      -6.710  12.870   5.028  0.00  0.00    +0.000 A 
ATOM      7  H   UNL     1      -7.894  12.765   8.208  0.00  0.00    +0.000 HD
ATOM      8  H   UNL     1      -8.516   9.995   4.964  0.00  0.00    +0.000 HD
ATOM      9  H   UNL     1      -6.488  14.163   6.737  0.00  0.00    +0.000 HD
ATOM     10  H   UNL     1      -7.107  11.402   3.503  0.00  0.00    +0.000 HD
ATOM     11  H   UNL     1      -6.090  13.486   4.383  0.00  0.00    +0.000 HD
ENDROOT
BRANCH   1  12
ATOM     12  C   UNL     1      -9.153  10.441   7.571  0.00  0.00    +0.000 C 
ATOM     13  H   UNL     1      -9.153  10.814   8.600  0.00  0.00    +0.000 HD
ATOM     14  H   UNL     1     -10.194  10.428   7.231  0.00  0.00    +0.000 HD
BRANCH  12  15
ATOM     15  O   UNL     1      -8.658   9.108   7.567  0.00  0.00    +0.000 OA
ATOM     16  H   UNL     1      -7.698   9.138   7.718  0.00  0.00    +0.000 HD
ENDBRANCH  12  15
ENDBRANCH   1  12
TORSDOF 2
ENDMDL
MODEL 7
REMARK VINA RESULT:    -4.358     13.026     13.679
REMARK INTER + INTRA:          -4.754
REMARK INTER:                  -4.735
REMARK INTRA:                  -0.019
REMARK UNBOUND:                -0.014
REMARK  Name = 244
REMARK  2 active torsions:
REMARK  status: ('A' for Active; 'I' for Inactive)
REMARK    1  A    between atoms: O_1  and  C_3
REMARK    2  A    between atoms: C_2  and  C_3
REMARK                            x       y       z     vdW  Elec       q    Type
REMARK                         _______ _______ _______ _____ _____    ______ ____
ROOT
ATOM      1  C   UNL     1       5.198  10.920   0.091  0.00  0.00    +0.000 A 
ATOM      2  C   UNL     1       6.389  11.349  -0.495  0.00  0.00    +0.000 A 
ATOM      3  C   UNL     1       5.094   9.622   0.591  0.00  0.00    +0.000 A 
ATOM      4  C   UNL     1       7.477  10.479  -0.579  0.00  0.00    +0.000 A 
ATOM      5  C   UNL     1       6.182   8.753   0.508  0.00  0.00    +0.000 A 
ATOM      6  C   UNL     1       7.373   9.182  -0.077  0.00  0.00    +0.000 A 
ATOM      7  H   UNL     1       6.483  12.357  -0.886  0.00  0.00    +0.000 HD
ATOM      8  H   UNL     1       4.172   9.277   1.052  0.00  0.00    +0.000 HD
ATOM      9  H   UNL     1       8.405  10.814  -1.034  0.00  0.00    +0.000 HD
ATOM     10  H   UNL     1       6.102   7.743   0.898  0.00  0.00    +0.000 HD
ATOM     11  H   UNL     1       8.221   8.505  -0.143  0.00  0.00    +0.000 HD
ENDROOT
BRANCH   1  12
ATOM     12  C   UNL     1       4.035  11.850   0.181  0.00  0.00    +0.000 C 
ATOM     13  H   UNL     1       4.360  12.885   0.325  0.00  0.00    +0.000 HD
ATOM     14  H   UNL     1       3.431  11.824  -0.733  0.00  0.00    +0.000 HD
BRANCH  12  15
ATOM     15  O   UNL     1       3.212  11.472   1.278  0.00  0.00    +0.000 OA
ATOM     16  H   UNL     1       3.772  11.038   1.944  0.00  0.00    +0.000 HD
ENDBRANCH  12  15
ENDBRANCH   1  12
TORSDOF 2
ENDMDL
MODEL 8
REMARK VINA RESULT:    -4.237     13.076     13.465
REMARK INTER + INTRA:          -4.622
REMARK INTER:                  -4.605
REMARK INTRA:                  -0.017
REMARK UNBOUND:                -0.014
REMARK  Name = 244
REMARK  2 active torsions:
REMARK  status: ('A' for Active; 'I' for Inactive)
REMARK    1  A    between atoms: O_1  and  C_3
REMARK    2  A    between atoms: C_2  and  C_3
REMARK                            x       y       z     vdW  Elec       q    Type
REMARK                         _______ _______ _______ _____ _____    ______ ____
ROOT
ATOM      1  C   UNL     1       5.995   9.582   0.415  0.00  0.00    +0.000 A 
ATOM      2  C   UNL     1       4.850   8.995   0.953  0.00  0.00    +0.000 A 
ATOM      3  C   UNL     1       5.981  10.927   0.044  0.00  0.00    +0.000 A 
ATOM      4  C   UNL     1       3.691   9.752   1.120  0.00  0.00    +0.000 A 
ATOM      5  C   UNL     1       4.821  11.684   0.211  0.00  0.00    +0.000 A 
ATOM      6  C   UNL     1       3.677  11.096   0.750  0.00  0.00    +0.000 A 
ATOM      7  H   UNL     1       4.850   7.949   1.248  0.00  0.00    +0.000 HD
ATOM      8  H   UNL     1       6.867  11.397  -0.375  0.00  0.00    +0.000 HD
ATOM      9  H   UNL     1       2.800   9.294   1.540  0.00  0.00    +0.000 HD
ATOM     10  H   UNL     1       4.809  12.731  -0.077  0.00  0.00    +0.000 HD
ATOM     11  H   UNL     1       2.773  11.686   0.880  0.00  0.00    +0.000 HD
ENDROOT
BRANCH   1  12
ATOM     12  C   UNL     1       7.236   8.772   0.236  0.00  0.00    +0.000 C 
ATOM     13  H   UNL     1       7.886   9.201  -0.534  0.00  0.00    +0.000 HD
ATOM     14  H   UNL     1       7.819   8.725   1.162  0.00  0.00    +0.000 HD
BRANCH  12  15
ATOM     15  O   UNL     1       6.884   7.448  -0.146  0.00  0.00    +0.000 OA
ATOM     16  H   UNL     1       6.009   7.475  -0.569  0.00  0.00    +0.000 HD
ENDBRANCH  12  15
ENDBRANCH   1  12
TORSDOF 2
ENDMDL
MODEL 9
REMARK VINA RESULT:    -4.060     26.442     27.402
REMARK INTER + INTRA:          -4.429
REMARK INTER:                  -4.418
REMARK INTRA:                  -0.012
REMARK UNBOUND:                -0.014
REMARK  Name = 244
REMARK  2 active torsions:
REMARK  status: ('A' for Active; 'I' for Inactive)
REMARK    1  A    between atoms: O_1  and  C_3
REMARK    2  A    between atoms: C_2  and  C_3
REMARK                            x       y       z     vdW  Elec       q    Type
REMARK                         _______ _______ _______ _____ _____    ______ ____
ROOT
ATOM      1  C   UNL     1     -21.303  -2.582   5.367  0.00  0.00    +0.000 A 
ATOM      2  C   UNL     1     -20.828  -1.349   4.917  0.00  0.00    +0.000 A 
ATOM      3  C   UNL     1     -21.444  -2.818   6.734  0.00  0.00    +0.000 A 
ATOM      4  C   UNL     1     -20.495  -0.353   5.835  0.00  0.00    +0.000 A 
ATOM      5  C   UNL     1     -21.111  -1.822   7.652  0.00  0.00    +0.000 A 
ATOM      6  C   UNL     1     -20.637  -0.590   7.202  0.00  0.00    +0.000 A 
ATOM      7  H   UNL     1     -20.716  -1.152   3.855  0.00  0.00    +0.000 HD
ATOM      8  H   UNL     1     -21.815  -3.773   7.097  0.00  0.00    +0.000 HD
ATOM      9  H   UNL     1     -20.126   0.606   5.485  0.00  0.00    +0.000 HD
ATOM     10  H   UNL     1     -21.221  -2.005   8.717  0.00  0.00    +0.000 HD
ATOM     11  H   UNL     1     -20.378   0.186   7.917  0.00  0.00    +0.000 HD
ENDROOT
BRANCH   1  12
ATOM     12  C   UNL     1     -21.659  -3.647   4.385  0.00  0.00    +0.000 C 
ATOM     13  H   UNL     1     -22.673  -4.024   4.554  0.00  0.00    +0.000 HD
ATOM     14  H   UNL     1     -21.621  -3.271   3.356  0.00  0.00    +0.000 HD
BRANCH  12  15
ATOM     15  O   UNL     1     -20.743  -4.727   4.506  0.00  0.00    +0.000 OA
ATOM     16  H   UNL     1     -19.842  -4.361   4.537  0.00  0.00    +0.000 HD
ENDBRANCH  12  15
ENDBRANCH   1  12
TORSDOF 2
ENDMDL
MODEL 10
REMARK VINA RESULT:    -4.038     33.157     34.030
REMARK INTER + INTRA:          -4.405
REMARK INTER:                  -4.392
REMARK INTRA:                  -0.014
REMARK UNBOUND:                -0.014
REMARK  Name = 244
REMARK  2 active torsions:
REMARK  status: ('A' for Active; 'I' for Inactive)
REMARK    1  A    between atoms: O_1  and  C_3
REMARK    2  A    between atoms: C_2  and  C_3
REMARK                            x       y       z     vdW  Elec       q    Type
REMARK                         _______ _______ _______ _____ _____    ______ ____
ROOT
ATOM      1  C   UNL     1      -9.514 -11.399  15.717  0.00  0.00    +0.000 A 
ATOM      2  C   UNL     1     -10.238 -10.207  15.686  0.00  0.00    +0.000 A 
ATOM      3  C   UNL     1     -10.142 -12.587  16.092  0.00  0.00    +0.000 A 
ATOM      4  C   UNL     1     -11.590 -10.203  16.031  0.00  0.00    +0.000 A 
ATOM      5  C   UNL     1     -11.494 -12.583  16.436  0.00  0.00    +0.000 A 
ATOM      6  C   UNL     1     -12.217 -11.390  16.405  0.00  0.00    +0.000 A 
ATOM      7  H   UNL     1      -9.761  -9.276  15.393  0.00  0.00    +0.000 HD
ATOM      8  H   UNL     1      -9.590 -13.523  16.118  0.00  0.00    +0.000 HD
ATOM      9  H   UNL     1     -12.153  -9.274  16.006  0.00  0.00    +0.000 HD
ATOM     10  H   UNL     1     -11.984 -13.507  16.728  0.00  0.00    +0.000 HD
ATOM     11  H   UNL     1     -13.270 -11.387  16.673  0.00  0.00    +0.000 HD
ENDROOT
BRANCH   1  12
ATOM     12  C   UNL     1      -8.068 -11.404  15.349  0.00  0.00    +0.000 C 
ATOM     13  H   UNL     1      -7.621 -12.393  15.495  0.00  0.00    +0.000 HD
ATOM     14  H   UNL     1      -7.923 -11.135  14.297  0.00  0.00    +0.000 HD
BRANCH  12  15
ATOM     15  O   UNL     1      -7.372 -10.464  16.157  0.00  0.00    +0.000 OA
ATOM     16  H   UNL     1      -6.759  -9.967  15.588  0.00  0.00    +0.000 HD
ENDBRANCH  12  15
ENDBRANCH   1  12
TORSDOF 2
ENDMDL
