MODEL 1
REMARK VINA RESULT:    -5.601      0.000      0.000
REMARK INTER + INTRA:          -8.457
REMARK INTER:                  -7.646
REMARK INTRA:                  -0.811
REMARK UNBOUND:                -0.728
REMARK  Name = 125098
REMARK  8 active torsions:
REMARK  status: ('A' for Active; 'I' for Inactive)
REMARK    1  A    between atoms: O_1  and  C_11
REMARK    2  A    between atoms: O_1  and  C_13
REMARK    3  A    between atoms: O_2  and  C_12
REMARK    4  A    between atoms: C_5  and  C_10
REMARK    5  A    between atoms: C_10  and  C_12
REMARK    6  A    between atoms: C_13  and  C_14
REMARK    7  A    between atoms: C_13  and  C_15
REMARK    8  A    between atoms: C_14  and  C_16
REMARK                            x       y       z     vdW  Elec       q    Type
REMARK                         _______ _______ _______ _____ _____    ______ ____
ROOT
ATOM      1  O   UNL     1       8.512   9.699   1.973  0.00  0.00    +0.000 OA
ATOM      2  N   UNL     1       6.626   8.570   2.740  0.00  0.00    +0.000 N 
ATOM      3  C   UNL     1       5.258   8.075   2.471  0.00  0.00    +0.000 C 
ATOM      4  C   UNL     1       4.964   6.787   3.254  0.00  0.00    +0.000 C 
ATOM      5  C   UNL     1       5.330   6.895   4.732  0.00  0.00    +0.000 C 
ATOM      6  C   UNL     1       6.781   7.332   4.886  0.00  0.00    +0.000 C 
ATOM      7  C   UNL     1       7.047   8.636   4.142  0.00  0.00    +0.000 C 
ATOM      8  C   UNL     1       7.442   9.136   1.750  0.00  0.00    +0.000 C 
ATOM      9  H   UNL     1       5.181   7.816   1.408  0.00  0.00    +0.000 HD
ATOM     10  H   UNL     1       5.550   5.971   2.813  0.00  0.00    +0.000 HD
ATOM     11  H   UNL     1       3.909   6.506   3.150  0.00  0.00    +0.000 HD
ATOM     12  H   UNL     1       5.184   5.923   5.219  0.00  0.00    +0.000 HD
ATOM     13  H   UNL     1       4.668   7.607   5.236  0.00  0.00    +0.000 HD
ATOM     14  H   UNL     1       7.024   7.454   5.947  0.00  0.00    +0.000 HD
ATOM     15  H   UNL     1       7.438   6.548   4.491  0.00  0.00    +0.000 HD
ATOM     16  H   UNL     1       6.498   9.461   4.609  0.00  0.00    +0.000 HD
ATOM     17  H   UNL     1       8.111   8.883   4.208  0.00  0.00    +0.000 HD
ENDROOT
BRANCH   3  18
ATOM     18  C   UNL     1       4.224   9.171   2.743  0.00  0.00    +0.000 C 
ATOM     19  H   UNL     1       4.661  10.002   3.309  0.00  0.00    +0.000 HD
ATOM     20  H   UNL     1       3.418   8.777   3.376  0.00  0.00    +0.000 HD
BRANCH  18  21
ATOM     21  C   UNL     1       3.636   9.710   1.454  0.00  0.00    +0.000 C 
ATOM     22  H   UNL     1       2.548   9.788   1.491  0.00  0.00    +0.000 HD
ATOM     23  H   UNL     1       4.055  10.686   1.189  0.00  0.00    +0.000 HD
BRANCH  21  24
ATOM     24  O   UNL     1       3.932   8.795   0.408  0.00  0.00    +0.000 OA
ATOM     25  H   UNL     1       3.429   7.980   0.579  0.00  0.00    +0.000 HD
ENDBRANCH  21  24
ENDBRANCH  18  21
ENDBRANCH   3  18
BRANCH   8  26
ATOM     26  O   UNL     1       6.917   9.002   0.492  0.00  0.00    +0.000 OA
BRANCH  26  27
ATOM     27  C   UNL     1       7.514   9.807  -0.531  0.00  0.00    +0.000 C 
ATOM     28  H   UNL     1       8.281  10.443  -0.071  0.00  0.00    +0.000 HD
BRANCH  27  29
ATOM     29  C   UNL     1       6.446  10.707  -1.137  0.00  0.00    +0.000 C 
ATOM     30  H   UNL     1       5.450  10.441  -0.763  0.00  0.00    +0.000 HD
ATOM     31  H   UNL     1       6.619  11.747  -0.840  0.00  0.00    +0.000 HD
ATOM     32  H   UNL     1       6.438  10.666  -2.229  0.00  0.00    +0.000 HD
ENDBRANCH  27  29
BRANCH  27  33
ATOM     33  C   UNL     1       8.133   8.893  -1.591  0.00  0.00    +0.000 C 
ATOM     34  H   UNL     1       7.809   7.855  -1.460  0.00  0.00    +0.000 HD
ATOM     35  H   UNL     1       7.786   9.183  -2.590  0.00  0.00    +0.000 HD
BRANCH  33  36
ATOM     36  C   UNL     1       9.655   8.909  -1.548  0.00  0.00    +0.000 C 
ATOM     37  H   UNL     1      10.067   7.909  -1.712  0.00  0.00    +0.000 HD
ATOM     38  H   UNL     1      10.031   9.292  -0.595  0.00  0.00    +0.000 HD
ATOM     39  H   UNL     1      10.042   9.566  -2.335  0.00  0.00    +0.000 HD
ENDBRANCH  33  36
ENDBRANCH  27  33
ENDBRANCH  26  27
ENDBRANCH   8  26
TORSDOF 8
ENDMDL
MODEL 2
REMARK VINA RESULT:    -5.155      1.831      4.910
REMARK INTER + INTRA:          -7.842
REMARK INTER:                  -7.535
REMARK INTRA:                  -0.307
REMARK UNBOUND:                -0.728
REMARK  Name = 125098
REMARK  8 active torsions:
REMARK  status: ('A' for Active; 'I' for Inactive)
REMARK    1  A    between atoms: O_1  and  C_11
REMARK    2  A    between atoms: O_1  and  C_13
REMARK    3  A    between atoms: O_2  and  C_12
REMARK    4  A    between atoms: C_5  and  C_10
REMARK    5  A    between atoms: C_10  and  C_12
REMARK    6  A    between atoms: C_13  and  C_14
REMARK    7  A    between atoms: C_13  and  C_15
REMARK    8  A    between atoms: C_14  and  C_16
REMARK                            x       y       z     vdW  Elec       q    Type
REMARK                         _______ _______ _______ _____ _____    ______ ____
ROOT
ATOM      1  O   UNL     1       6.622   6.880   1.671  0.00  0.00    +0.000 OA
ATOM      2  N   UNL     1       6.234   8.971   0.722  0.00  0.00    +0.000 N 
ATOM      3  C   UNL     1       5.616  10.310   0.834  0.00  0.00    +0.000 C 
ATOM      4  C   UNL     1       6.437  11.370   0.084  0.00  0.00    +0.000 C 
ATOM      5  C   UNL     1       6.798  10.946  -1.336  0.00  0.00    +0.000 C 
ATOM      6  C   UNL     1       7.500   9.594  -1.321  0.00  0.00    +0.000 C 
ATOM      7  C   UNL     1       6.654   8.541  -0.615  0.00  0.00    +0.000 C 
ATOM      8  C   UNL     1       6.263   8.051   1.780  0.00  0.00    +0.000 C 
ATOM      9  H   UNL     1       5.614  10.608   1.889  0.00  0.00    +0.000 HD
ATOM     10  H   UNL     1       7.368  11.545   0.640  0.00  0.00    +0.000 HD
ATOM     11  H   UNL     1       5.901  12.327   0.064  0.00  0.00    +0.000 HD
ATOM     12  H   UNL     1       7.455  11.698  -1.788  0.00  0.00    +0.000 HD
ATOM     13  H   UNL     1       5.898  10.894  -1.958  0.00  0.00    +0.000 HD
ATOM     14  H   UNL     1       7.714   9.272  -2.346  0.00  0.00    +0.000 HD
ATOM     15  H   UNL     1       8.463   9.693  -0.804  0.00  0.00    +0.000 HD
ATOM     16  H   UNL     1       5.745   8.332  -1.191  0.00  0.00    +0.000 HD
ATOM     17  H   UNL     1       7.216   7.603  -0.553  0.00  0.00    +0.000 HD
ENDROOT
BRANCH   3  18
ATOM     18  C   UNL     1       4.156  10.272   0.374  0.00  0.00    +0.000 C 
ATOM     19  H   UNL     1       3.560   9.590   0.993  0.00  0.00    +0.000 HD
ATOM     20  H   UNL     1       4.095   9.871  -0.646  0.00  0.00    +0.000 HD
BRANCH  18  21
ATOM     21  C   UNL     1       3.527  11.650   0.415  0.00  0.00    +0.000 C 
ATOM     22  H   UNL     1       2.630  11.682   1.038  0.00  0.00    +0.000 HD
ATOM     23  H   UNL     1       4.230  12.413   0.763  0.00  0.00    +0.000 HD
BRANCH  21  24
ATOM     24  O   UNL     1       3.107  11.991  -0.899  0.00  0.00    +0.000 OA
ATOM     25  H   UNL     1       2.136  12.027  -0.898  0.00  0.00    +0.000 HD
ENDBRANCH  21  24
ENDBRANCH  18  21
ENDBRANCH   3  18
BRANCH   8  26
ATOM     26  O   UNL     1       5.840   8.594   2.964  0.00  0.00    +0.000 OA
BRANCH  26  27
ATOM     27  C   UNL     1       6.259   7.919   4.155  0.00  0.00    +0.000 C 
ATOM     28  H   UNL     1       7.112   7.274   3.908  0.00  0.00    +0.000 HD
BRANCH  27  29
ATOM     29  C   UNL     1       5.119   7.040   4.651  0.00  0.00    +0.000 C 
ATOM     30  H   UNL     1       4.644   6.506   3.820  0.00  0.00    +0.000 HD
ATOM     31  H   UNL     1       5.507   6.271   5.330  0.00  0.00    +0.000 HD
ATOM     32  H   UNL     1       4.357   7.610   5.188  0.00  0.00    +0.000 HD
ENDBRANCH  27  29
BRANCH  27  33
ATOM     33  C   UNL     1       6.653   8.958   5.207  0.00  0.00    +0.000 C 
ATOM     34  H   UNL     1       6.129   9.906   5.047  0.00  0.00    +0.000 HD
ATOM     35  H   UNL     1       6.348   8.620   6.205  0.00  0.00    +0.000 HD
BRANCH  33  36
ATOM     36  C   UNL     1       8.148   9.251   5.196  0.00  0.00    +0.000 C 
ATOM     37  H   UNL     1       8.688   8.529   4.575  0.00  0.00    +0.000 HD
ATOM     38  H   UNL     1       8.572   9.234   6.204  0.00  0.00    +0.000 HD
ATOM     39  H   UNL     1       8.329  10.250   4.786  0.00  0.00    +0.000 HD
ENDBRANCH  33  36
ENDBRANCH  27  33
ENDBRANCH  26  27
ENDBRANCH   8  26
TORSDOF 8
ENDMDL
MODEL 3
REMARK VINA RESULT:    -5.051     28.379     30.134
REMARK INTER + INTRA:          -7.698
REMARK INTER:                  -7.006
REMARK INTRA:                  -0.692
REMARK UNBOUND:                -0.728
REMARK  Name = 125098
REMARK  8 active torsions:
REMARK  status: ('A' for Active; 'I' for Inactive)
REMARK    1  A    between atoms: O_1  and  C_11
REMARK    2  A    between atoms: O_1  and  C_13
REMARK    3  A    between atoms: O_2  and  C_12
REMARK    4  A    between atoms: C_5  and  C_10
REMARK    5  A    between atoms: C_10  and  C_12
REMARK    6  A    between atoms: C_13  and  C_14
REMARK    7  A    between atoms: C_13  and  C_15
REMARK    8  A    between atoms: C_14  and  C_16
REMARK                            x       y       z     vdW  Elec       q    Type
REMARK                         _______ _______ _______ _____ _____    ______ ____
ROOT
ATOM      1  O   UNL     1     -18.892  -5.228   5.543  0.00  0.00    +0.000 OA
ATOM      2  N   UNL     1     -19.743  -4.609   3.465  0.00  0.00    +0.000 N 
ATOM      3  C   UNL     1     -20.882  -4.097   2.672  0.00  0.00    +0.000 C 
ATOM      4  C   UNL     1     -20.401  -3.283   1.462  0.00  0.00    +0.000 C 
ATOM      5  C   UNL     1     -19.326  -4.002   0.653  0.00  0.00    +0.000 C 
ATOM      6  C   UNL     1     -18.169  -4.409   1.556  0.00  0.00    +0.000 C 
ATOM      7  C   UNL     1     -18.654  -5.256   2.727  0.00  0.00    +0.000 C 
ATOM      8  C   UNL     1     -19.750  -4.664   4.866  0.00  0.00    +0.000 C 
ATOM      9  H   UNL     1     -21.464  -3.410   3.297  0.00  0.00    +0.000 HD
ATOM     10  H   UNL     1     -19.983  -2.335   1.825  0.00  0.00    +0.000 HD
ATOM     11  H   UNL     1     -21.246  -3.024   0.813  0.00  0.00    +0.000 HD
ATOM     12  H   UNL     1     -18.959  -3.340  -0.141  0.00  0.00    +0.000 HD
ATOM     13  H   UNL     1     -19.747  -4.885   0.161  0.00  0.00    +0.000 HD
ATOM     14  H   UNL     1     -17.422  -4.966   0.980  0.00  0.00    +0.000 HD
ATOM     15  H   UNL     1     -17.675  -3.508   1.940  0.00  0.00    +0.000 HD
ATOM     16  H   UNL     1     -19.030  -6.221   2.371  0.00  0.00    +0.000 HD
ATOM     17  H   UNL     1     -17.815  -5.467   3.397  0.00  0.00    +0.000 HD
ENDROOT
BRANCH   3  18
ATOM     18  C   UNL     1     -21.817  -5.241   2.270  0.00  0.00    +0.000 C 
ATOM     19  H   UNL     1     -21.509  -6.188   2.728  0.00  0.00    +0.000 HD
ATOM     20  H   UNL     1     -21.761  -5.408   1.187  0.00  0.00    +0.000 HD
BRANCH  18  21
ATOM     21  C   UNL     1     -23.251  -4.948   2.664  0.00  0.00    +0.000 C 
ATOM     22  H   UNL     1     -23.652  -4.067   2.157  0.00  0.00    +0.000 HD
ATOM     23  H   UNL     1     -23.911  -5.800   2.474  0.00  0.00    +0.000 HD
BRANCH  21  24
ATOM     24  O   UNL     1     -23.285  -4.654   4.053  0.00  0.00    +0.000 OA
ATOM     25  H   UNL     1     -22.368  -4.516   4.347  0.00  0.00    +0.000 HD
ENDBRANCH  21  24
ENDBRANCH  18  21
ENDBRANCH   3  18
BRANCH   8  26
ATOM     26  O   UNL     1     -20.828  -4.022   5.415  0.00  0.00    +0.000 OA
BRANCH  26  27
ATOM     27  C   UNL     1     -20.547  -2.815   6.134  0.00  0.00    +0.000 C 
ATOM     28  H   UNL     1     -19.504  -2.848   6.473  0.00  0.00    +0.000 HD
BRANCH  27  29
ATOM     29  C   UNL     1     -21.448  -2.750   7.359  0.00  0.00    +0.000 C 
ATOM     30  H   UNL     1     -21.193  -3.538   8.077  0.00  0.00    +0.000 HD
ATOM     31  H   UNL     1     -21.303  -1.798   7.882  0.00  0.00    +0.000 HD
ATOM     32  H   UNL     1     -22.507  -2.834   7.102  0.00  0.00    +0.000 HD
ENDBRANCH  27  29
BRANCH  27  33
ATOM     33  C   UNL     1     -20.780  -1.617   5.212  0.00  0.00    +0.000 C 
ATOM     34  H   UNL     1     -20.186  -1.698   4.295  0.00  0.00    +0.000 HD
ATOM     35  H   UNL     1     -21.826  -1.592   4.881  0.00  0.00    +0.000 HD
BRANCH  33  36
ATOM     36  C   UNL     1     -20.418  -0.297   5.879  0.00  0.00    +0.000 C 
ATOM     37  H   UNL     1     -19.511   0.132   5.442  0.00  0.00    +0.000 HD
ATOM     38  H   UNL     1     -20.267  -0.414   6.956  0.00  0.00    +0.000 HD
ATOM     39  H   UNL     1     -21.231   0.424   5.744  0.00  0.00    +0.000 HD
ENDBRANCH  33  36
ENDBRANCH  27  33
ENDBRANCH  26  27
ENDBRANCH   8  26
TORSDOF 8
ENDMDL
MODEL 4
REMARK VINA RESULT:    -4.997     29.142     30.016
REMARK INTER + INTRA:          -7.623
REMARK INTER:                  -7.370
REMARK INTRA:                  -0.254
REMARK UNBOUND:                -0.728
REMARK  Name = 125098
REMARK  8 active torsions:
REMARK  status: ('A' for Active; 'I' for Inactive)
REMARK    1  A    between atoms: O_1  and  C_11
REMARK    2  A    between atoms: O_1  and  C_13
REMARK    3  A    between atoms: O_2  and  C_12
REMARK    4  A    between atoms: C_5  and  C_10
REMARK    5  A    between atoms: C_10  and  C_12
REMARK    6  A    between atoms: C_13  and  C_14
REMARK    7  A    between atoms: C_13  and  C_15
REMARK    8  A    between atoms: C_14  and  C_16
REMARK                            x       y       z     vdW  Elec       q    Type
REMARK                         _______ _______ _______ _____ _____    ______ ____
ROOT
ATOM      1  O   UNL     1     -21.107  -0.683   2.810  0.00  0.00    +0.000 OA
ATOM      2  N   UNL     1     -20.836  -2.980   2.536  0.00  0.00    +0.000 N 
ATOM      3  C   UNL     1     -20.746  -4.320   3.155  0.00  0.00    +0.000 C 
ATOM      4  C   UNL     1     -21.287  -5.408   2.216  0.00  0.00    +0.000 C 
ATOM      5  C   UNL     1     -20.716  -5.313   0.805  0.00  0.00    +0.000 C 
ATOM      6  C   UNL     1     -20.937  -3.915   0.239  0.00  0.00    +0.000 C 
ATOM      7  C   UNL     1     -20.354  -2.848   1.158  0.00  0.00    +0.000 C 
ATOM      8  C   UNL     1     -21.180  -1.827   3.256  0.00  0.00    +0.000 C 
ATOM      9  H   UNL     1     -21.381  -4.338   4.048  0.00  0.00    +0.000 HD
ATOM     10  H   UNL     1     -22.378  -5.302   2.154  0.00  0.00    +0.000 HD
ATOM     11  H   UNL     1     -21.094  -6.405   2.631  0.00  0.00    +0.000 HD
ATOM     12  H   UNL     1     -21.202  -6.053   0.159  0.00  0.00    +0.000 HD
ATOM     13  H   UNL     1     -19.646  -5.549   0.811  0.00  0.00    +0.000 HD
ATOM     14  H   UNL     1     -20.483  -3.838  -0.755  0.00  0.00    +0.000 HD
ATOM     15  H   UNL     1     -22.013  -3.741   0.118  0.00  0.00    +0.000 HD
ATOM     16  H   UNL     1     -19.261  -2.924   1.187  0.00  0.00    +0.000 HD
ATOM     17  H   UNL     1     -20.595  -1.856   0.764  0.00  0.00    +0.000 HD
ENDROOT
BRANCH   3  18
ATOM     18  C   UNL     1     -19.315  -4.608   3.615  0.00  0.00    +0.000 C 
ATOM     19  H   UNL     1     -18.906  -3.773   4.196  0.00  0.00    +0.000 HD
ATOM     20  H   UNL     1     -18.654  -4.711   2.744  0.00  0.00    +0.000 HD
BRANCH  18  21
ATOM     21  C   UNL     1     -19.246  -5.869   4.453  0.00  0.00    +0.000 C 
ATOM     22  H   UNL     1     -20.233  -6.226   4.754  0.00  0.00    +0.000 HD
ATOM     23  H   UNL     1     -18.717  -6.677   3.938  0.00  0.00    +0.000 HD
BRANCH  21  24
ATOM     24  O   UNL     1     -18.549  -5.572   5.655  0.00  0.00    +0.000 OA
ATOM     25  H   UNL     1     -19.212  -5.379   6.340  0.00  0.00    +0.000 HD
ENDBRANCH  21  24
ENDBRANCH  18  21
ENDBRANCH   3  18
BRANCH   8  26
ATOM     26  O   UNL     1     -21.608  -2.106   4.527  0.00  0.00    +0.000 OA
BRANCH  26  27
ATOM     27  C   UNL     1     -20.635  -1.960   5.568  0.00  0.00    +0.000 C 
ATOM     28  H   UNL     1     -19.638  -2.120   5.138  0.00  0.00    +0.000 HD
BRANCH  27  29
ATOM     29  C   UNL     1     -20.879  -3.029   6.624  0.00  0.00    +0.000 C 
ATOM     30  H   UNL     1     -21.701  -3.691   6.331  0.00  0.00    +0.000 HD
ATOM     31  H   UNL     1     -19.992  -3.664   6.726  0.00  0.00    +0.000 HD
ATOM     32  H   UNL     1     -21.100  -2.601   7.605  0.00  0.00    +0.000 HD
ENDBRANCH  27  29
BRANCH  27  33
ATOM     33  C   UNL     1     -20.748  -0.556   6.166  0.00  0.00    +0.000 C 
ATOM     34  H   UNL     1     -19.809  -0.002   6.062  0.00  0.00    +0.000 HD
ATOM     35  H   UNL     1     -21.495   0.030   5.614  0.00  0.00    +0.000 HD
BRANCH  33  36
ATOM     36  C   UNL     1     -21.105  -0.585   7.646  0.00  0.00    +0.000 C 
ATOM     37  H   UNL     1     -21.534   0.368   7.968  0.00  0.00    +0.000 HD
ATOM     38  H   UNL     1     -20.235  -0.808   8.269  0.00  0.00    +0.000 HD
ATOM     39  H   UNL     1     -21.846  -1.369   7.834  0.00  0.00    +0.000 HD
ENDBRANCH  33  36
ENDBRANCH  27  33
ENDBRANCH  26  27
ENDBRANCH   8  26
TORSDOF 8
ENDMDL
MODEL 5
REMARK VINA RESULT:    -4.746     14.433     16.138
REMARK INTER + INTRA:          -7.277
REMARK INTER:                  -6.789
REMARK INTRA:                  -0.488
REMARK UNBOUND:                -0.728
REMARK  Name = 125098
REMARK  8 active torsions:
REMARK  status: ('A' for Active; 'I' for Inactive)
REMARK    1  A    between atoms: O_1  and  C_11
REMARK    2  A    between atoms: O_1  and  C_13
REMARK    3  A    between atoms: O_2  and  C_12
REMARK    4  A    between atoms: C_5  and  C_10
REMARK    5  A    between atoms: C_10  and  C_12
REMARK    6  A    between atoms: C_13  and  C_14
REMARK    7  A    between atoms: C_13  and  C_15
REMARK    8  A    between atoms: C_14  and  C_16
REMARK                            x       y       z     vdW  Elec       q    Type
REMARK                         _______ _______ _______ _____ _____    ______ ____
ROOT
ATOM      1  O   UNL     1      -0.766  10.835 -11.054  0.00  0.00    +0.000 OA
ATOM      2  N   UNL     1      -2.100   8.949 -10.761  0.00  0.00    +0.000 N 
ATOM      3  C   UNL     1      -2.655   7.700 -11.324  0.00  0.00    +0.000 C 
ATOM      4  C   UNL     1      -2.879   6.643 -10.232  0.00  0.00    +0.000 C 
ATOM      5  C   UNL     1      -3.628   7.191  -9.021  0.00  0.00    +0.000 C 
ATOM      6  C   UNL     1      -2.922   8.427  -8.478  0.00  0.00    +0.000 C 
ATOM      7  C   UNL     1      -2.749   9.485  -9.561  0.00  0.00    +0.000 C 
ATOM      8  C   UNL     1      -1.127   9.717 -11.417  0.00  0.00    +0.000 C 
ATOM      9  H   UNL     1      -1.925   7.274 -12.022  0.00  0.00    +0.000 HD
ATOM     10  H   UNL     1      -1.899   6.280  -9.895  0.00  0.00    +0.000 HD
ATOM     11  H   UNL     1      -3.411   5.776 -10.640  0.00  0.00    +0.000 HD
ATOM     12  H   UNL     1      -3.679   6.422  -8.241  0.00  0.00    +0.000 HD
ATOM     13  H   UNL     1      -4.660   7.438  -9.293  0.00  0.00    +0.000 HD
ATOM     14  H   UNL     1      -3.490   8.844  -7.639  0.00  0.00    +0.000 HD
ATOM     15  H   UNL     1      -1.937   8.139  -8.091  0.00  0.00    +0.000 HD
ATOM     16  H   UNL     1      -3.724   9.882  -9.867  0.00  0.00    +0.000 HD
ATOM     17  H   UNL     1      -2.173  10.326  -9.161  0.00  0.00    +0.000 HD
ENDROOT
BRANCH   3  18
ATOM     18  C   UNL     1      -3.929   7.987 -12.125  0.00  0.00    +0.000 C 
ATOM     19  H   UNL     1      -3.966   9.032 -12.455  0.00  0.00    +0.000 HD
ATOM     20  H   UNL     1      -4.812   7.849 -11.488  0.00  0.00    +0.000 HD
BRANCH  18  21
ATOM     21  C   UNL     1      -4.035   7.084 -13.339  0.00  0.00    +0.000 C 
ATOM     22  H   UNL     1      -3.059   6.821 -13.750  0.00  0.00    +0.000 HD
ATOM     23  H   UNL     1      -4.589   6.166 -13.120  0.00  0.00    +0.000 HD
BRANCH  21  24
ATOM     24  O   UNL     1      -4.720   7.790 -14.364  0.00  0.00    +0.000 OA
ATOM     25  H   UNL     1      -4.051   8.210 -14.930  0.00  0.00    +0.000 HD
ENDBRANCH  21  24
ENDBRANCH  18  21
ENDBRANCH   3  18
BRANCH   8  26
ATOM     26  O   UNL     1      -0.615   9.090 -12.521  0.00  0.00    +0.000 OA
BRANCH  26  27
ATOM     27  C   UNL     1      -0.475   9.895 -13.698  0.00  0.00    +0.000 C 
ATOM     28  H   UNL     1      -0.123  10.891 -13.398  0.00  0.00    +0.000 HD
BRANCH  27  29
ATOM     29  C   UNL     1      -1.838  10.047 -14.358  0.00  0.00    +0.000 C 
ATOM     30  H   UNL     1      -2.644   9.929 -13.626  0.00  0.00    +0.000 HD
ATOM     31  H   UNL     1      -1.943  11.055 -14.774  0.00  0.00    +0.000 HD
ATOM     32  H   UNL     1      -1.988   9.331 -15.170  0.00  0.00    +0.000 HD
ENDBRANCH  27  29
BRANCH  27  33
ATOM     33  C   UNL     1       0.528   9.229 -14.643  0.00  0.00    +0.000 C 
ATOM     34  H   UNL     1       1.404   8.861 -14.100  0.00  0.00    +0.000 HD
ATOM     35  H   UNL     1       0.078   8.342 -15.106  0.00  0.00    +0.000 HD
BRANCH  33  36
ATOM     36  C   UNL     1       1.022  10.182 -15.724  0.00  0.00    +0.000 C 
ATOM     37  H   UNL     1       1.300  11.151 -15.300  0.00  0.00    +0.000 HD
ATOM     38  H   UNL     1       0.268  10.341 -16.500  0.00  0.00    +0.000 HD
ATOM     39  H   UNL     1       1.906   9.762 -16.214  0.00  0.00    +0.000 HD
ENDBRANCH  33  36
ENDBRANCH  27  33
ENDBRANCH  26  27
ENDBRANCH   8  26
TORSDOF 8
ENDMDL
MODEL 6
REMARK VINA RESULT:    -4.688     17.944     19.914
REMARK INTER + INTRA:          -7.198
REMARK INTER:                  -6.462
REMARK INTRA:                  -0.736
REMARK UNBOUND:                -0.728
REMARK  Name = 125098
REMARK  8 active torsions:
REMARK  status: ('A' for Active; 'I' for Inactive)
REMARK    1  A    between atoms: O_1  and  C_11
REMARK    2  A    between atoms: O_1  and  C_13
REMARK    3  A    between atoms: O_2  and  C_12
REMARK    4  A    between atoms: C_5  and  C_10
REMARK    5  A    between atoms: C_10  and  C_12
REMARK    6  A    between atoms: C_13  and  C_14
REMARK    7  A    between atoms: C_13  and  C_15
REMARK    8  A    between atoms: C_14  and  C_16
REMARK                            x       y       z     vdW  Elec       q    Type
REMARK                         _______ _______ _______ _____ _____    ______ ____
ROOT
ATOM      1  O   UNL     1       1.457  -3.460 -14.021  0.00  0.00    +0.000 OA
ATOM      2  N   UNL     1       3.059  -2.002 -14.876  0.00  0.00    +0.000 N 
ATOM      3  C   UNL     1       3.548  -0.614 -15.022  0.00  0.00    +0.000 C 
ATOM      4  C   UNL     1       5.080  -0.569 -15.128  0.00  0.00    +0.000 C 
ATOM      5  C   UNL     1       5.634  -1.557 -16.150  0.00  0.00    +0.000 C 
ATOM      6  C   UNL     1       5.128  -2.963 -15.854  0.00  0.00    +0.000 C 
ATOM      7  C   UNL     1       3.605  -3.002 -15.798  0.00  0.00    +0.000 C 
ATOM      8  C   UNL     1       1.987  -2.351 -14.041  0.00  0.00    +0.000 C 
ATOM      9  H   UNL     1       3.283  -0.052 -14.119  0.00  0.00    +0.000 HD
ATOM     10  H   UNL     1       5.503  -0.817 -14.145  0.00  0.00    +0.000 HD
ATOM     11  H   UNL     1       5.418   0.446 -15.367  0.00  0.00    +0.000 HD
ATOM     12  H   UNL     1       6.729  -1.544 -16.118  0.00  0.00    +0.000 HD
ATOM     13  H   UNL     1       5.341  -1.259 -17.163  0.00  0.00    +0.000 HD
ATOM     14  H   UNL     1       5.490  -3.660 -16.618  0.00  0.00    +0.000 HD
ATOM     15  H   UNL     1       5.536  -3.298 -14.892  0.00  0.00    +0.000 HD
ATOM     16  H   UNL     1       3.181  -2.800 -16.788  0.00  0.00    +0.000 HD
ATOM     17  H   UNL     1       3.277  -4.005 -15.509  0.00  0.00    +0.000 HD
ENDROOT
BRANCH   3  18
ATOM     18  C   UNL     1       2.863   0.080 -16.202  0.00  0.00    +0.000 C 
ATOM     19  H   UNL     1       2.054  -0.536 -16.612  0.00  0.00    +0.000 HD
ATOM     20  H   UNL     1       3.577   0.212 -17.025  0.00  0.00    +0.000 HD
BRANCH  18  21
ATOM     21  C   UNL     1       2.298   1.428 -15.800  0.00  0.00    +0.000 C 
ATOM     22  H   UNL     1       2.853   2.260 -16.236  0.00  0.00    +0.000 HD
ATOM     23  H   UNL     1       1.241   1.526 -16.064  0.00  0.00    +0.000 HD
BRANCH  21  24
ATOM     24  O   UNL     1       2.423   1.565 -14.391  0.00  0.00    +0.000 OA
ATOM     25  H   UNL     1       1.972   2.386 -14.134  0.00  0.00    +0.000 HD
ENDBRANCH  21  24
ENDBRANCH  18  21
ENDBRANCH   3  18
BRANCH   8  26
ATOM     26  O   UNL     1       1.582  -1.316 -13.242  0.00  0.00    +0.000 OA
BRANCH  26  27
ATOM     27  C   UNL     1       0.167  -1.123 -13.124  0.00  0.00    +0.000 C 
ATOM     28  H   UNL     1      -0.296  -2.088 -12.879  0.00  0.00    +0.000 HD
BRANCH  27  29
ATOM     29  C   UNL     1      -0.380  -0.655 -14.465  0.00  0.00    +0.000 C 
ATOM     30  H   UNL     1       0.418  -0.584 -15.212  0.00  0.00    +0.000 HD
ATOM     31  H   UNL     1      -1.101  -1.385 -14.851  0.00  0.00    +0.000 HD
ATOM     32  H   UNL     1      -0.886   0.311 -14.393  0.00  0.00    +0.000 HD
ENDBRANCH  27  29
BRANCH  27  33
ATOM     33  C   UNL     1      -0.108  -0.096 -12.024  0.00  0.00    +0.000 C 
ATOM     34  H   UNL     1       0.746   0.000 -11.345  0.00  0.00    +0.000 HD
ATOM     35  H   UNL     1      -0.245   0.900 -12.464  0.00  0.00    +0.000 HD
BRANCH  33  36
ATOM     36  C   UNL     1      -1.325  -0.462 -11.185  0.00  0.00    +0.000 C 
ATOM     37  H   UNL     1      -2.255  -0.242 -11.720  0.00  0.00    +0.000 HD
ATOM     38  H   UNL     1      -1.335   0.071 -10.230  0.00  0.00    +0.000 HD
ATOM     39  H   UNL     1      -1.312  -1.533 -10.958  0.00  0.00    +0.000 HD
ENDBRANCH  33  36
ENDBRANCH  27  33
ENDBRANCH  26  27
ENDBRANCH   8  26
TORSDOF 8
ENDMDL
MODEL 7
REMARK VINA RESULT:    -4.679     16.776     18.662
REMARK INTER + INTRA:          -7.184
REMARK INTER:                  -6.735
REMARK INTRA:                  -0.449
REMARK UNBOUND:                -0.728
REMARK  Name = 125098
REMARK  8 active torsions:
REMARK  status: ('A' for Active; 'I' for Inactive)
REMARK    1  A    between atoms: O_1  and  C_11
REMARK    2  A    between atoms: O_1  and  C_13
REMARK    3  A    between atoms: O_2  and  C_12
REMARK    4  A    between atoms: C_5  and  C_10
REMARK    5  A    between atoms: C_10  and  C_12
REMARK    6  A    between atoms: C_13  and  C_14
REMARK    7  A    between atoms: C_13  and  C_15
REMARK    8  A    between atoms: C_14  and  C_16
REMARK                            x       y       z     vdW  Elec       q    Type
REMARK                         _______ _______ _______ _____ _____    ______ ____
ROOT
ATOM      1  O   UNL     1     -11.798   5.590  -8.085  0.00  0.00    +0.000 OA
ATOM      2  N   UNL     1      -9.944   4.962  -6.822  0.00  0.00    +0.000 N 
ATOM      3  C   UNL     1      -8.532   5.201  -6.455  0.00  0.00    +0.000 C 
ATOM      4  C   UNL     1      -8.253   4.786  -5.002  0.00  0.00    +0.000 C 
ATOM      5  C   UNL     1      -8.776   3.391  -4.673  0.00  0.00    +0.000 C 
ATOM      6  C   UNL     1     -10.256   3.287  -5.018  0.00  0.00    +0.000 C 
ATOM      7  C   UNL     1     -10.512   3.657  -6.474  0.00  0.00    +0.000 C 
ATOM      8  C   UNL     1     -10.681   5.838  -7.632  0.00  0.00    +0.000 C 
ATOM      9  H   UNL     1      -8.330   6.277  -6.514  0.00  0.00    +0.000 HD
ATOM     10  H   UNL     1      -8.746   5.505  -4.335  0.00  0.00    +0.000 HD
ATOM     11  H   UNL     1      -7.180   4.843  -4.786  0.00  0.00    +0.000 HD
ATOM     12  H   UNL     1      -8.630   3.185  -3.606  0.00  0.00    +0.000 HD
ATOM     13  H   UNL     1      -8.209   2.633  -5.224  0.00  0.00    +0.000 HD
ATOM     14  H   UNL     1     -10.615   2.270  -4.824  0.00  0.00    +0.000 HD
ATOM     15  H   UNL     1     -10.827   3.961  -4.366  0.00  0.00    +0.000 HD
ATOM     16  H   UNL     1     -10.059   2.915  -7.142  0.00  0.00    +0.000 HD
ATOM     17  H   UNL     1     -11.589   3.646  -6.669  0.00  0.00    +0.000 HD
ENDROOT
BRANCH   3  18
ATOM     18  C   UNL     1      -7.591   4.512  -7.447  0.00  0.00    +0.000 C 
ATOM     19  H   UNL     1      -8.088   3.679  -7.957  0.00  0.00    +0.000 HD
ATOM     20  H   UNL     1      -6.743   4.065  -6.912  0.00  0.00    +0.000 HD
BRANCH  18  21
ATOM     21  C   UNL     1      -7.075   5.486  -8.488  0.00  0.00    +0.000 C 
ATOM     22  H   UNL     1      -7.005   5.038  -9.481  0.00  0.00    +0.000 HD
ATOM     23  H   UNL     1      -7.691   6.389  -8.547  0.00  0.00    +0.000 HD
BRANCH  21  24
ATOM     24  O   UNL     1      -5.754   5.867  -8.132  0.00  0.00    +0.000 OA
ATOM     25  H   UNL     1      -5.326   6.228  -8.927  0.00  0.00    +0.000 HD
ENDBRANCH  21  24
ENDBRANCH  18  21
ENDBRANCH   3  18
BRANCH   8  26
ATOM     26  O   UNL     1     -10.022   7.013  -7.876  0.00  0.00    +0.000 OA
BRANCH  26  27
ATOM     27  C   UNL     1     -10.677   8.209  -7.436  0.00  0.00    +0.000 C 
ATOM     28  H   UNL     1     -11.762   8.060  -7.514  0.00  0.00    +0.000 HD
BRANCH  27  29
ATOM     29  C   UNL     1     -10.282   9.355  -8.357  0.00  0.00    +0.000 C 
ATOM     30  H   UNL     1     -10.856  10.260  -8.127  0.00  0.00    +0.000 HD
ATOM     31  H   UNL     1      -9.228   9.611  -8.205  0.00  0.00    +0.000 HD
ATOM     32  H   UNL     1     -10.419   9.107  -9.412  0.00  0.00    +0.000 HD
ENDBRANCH  27  29
BRANCH  27  33
ATOM     33  C   UNL     1     -10.274   8.497  -5.989  0.00  0.00    +0.000 C 
ATOM     34  H   UNL     1      -9.362   7.956  -5.714  0.00  0.00    +0.000 HD
ATOM     35  H   UNL     1     -10.030   9.560  -5.869  0.00  0.00    +0.000 HD
BRANCH  33  36
ATOM     36  C   UNL     1     -11.360   8.102  -4.997  0.00  0.00    +0.000 C 
ATOM     37  H   UNL     1     -12.349   8.126  -5.464  0.00  0.00    +0.000 HD
ATOM     38  H   UNL     1     -11.368   8.757  -4.122  0.00  0.00    +0.000 HD
ATOM     39  H   UNL     1     -11.182   7.083  -4.637  0.00  0.00    +0.000 HD
ENDBRANCH  33  36
ENDBRANCH  27  33
ENDBRANCH  26  27
ENDBRANCH   8  26
TORSDOF 8
ENDMDL
MODEL 8
REMARK VINA RESULT:    -4.669     14.993     16.042
REMARK INTER + INTRA:          -7.171
REMARK INTER:                  -6.471
REMARK INTRA:                  -0.700
REMARK UNBOUND:                -0.728
REMARK  Name = 125098
REMARK  8 active torsions:
REMARK  status: ('A' for Active; 'I' for Inactive)
REMARK    1  A    between atoms: O_1  and  C_11
REMARK    2  A    between atoms: O_1  and  C_13
REMARK    3  A    between atoms: O_2  and  C_12
REMARK    4  A    between atoms: C_5  and  C_10
REMARK    5  A    between atoms: C_10  and  C_12
REMARK    6  A    between atoms: C_13  and  C_14
REMARK    7  A    between atoms: C_13  and  C_15
REMARK    8  A    between atoms: C_14  and  C_16
REMARK                            x       y       z     vdW  Elec       q    Type
REMARK                         _______ _______ _______ _____ _____    ______ ____
ROOT
ATOM      1  O   UNL     1      -6.944  13.429   9.044  0.00  0.00    +0.000 OA
ATOM      2  N   UNL     1      -7.903  11.326   8.755  0.00  0.00    +0.000 N 
ATOM      3  C   UNL     1      -8.822  10.455   7.992  0.00  0.00    +0.000 C 
ATOM      4  C   UNL     1      -8.344   8.995   7.996  0.00  0.00    +0.000 C 
ATOM      5  C   UNL     1      -7.991   8.490   9.391  0.00  0.00    +0.000 C 
ATOM      6  C   UNL     1      -6.979   9.420  10.048  0.00  0.00    +0.000 C 
ATOM      7  C   UNL     1      -7.486  10.856  10.080  0.00  0.00    +0.000 C 
ATOM      8  C   UNL     1      -7.573  12.628   8.353  0.00  0.00    +0.000 C 
ATOM      9  H   UNL     1      -8.823  10.778   6.944  0.00  0.00    +0.000 HD
ATOM     10  H   UNL     1      -7.448   8.922   7.366  0.00  0.00    +0.000 HD
ATOM     11  H   UNL     1      -9.099   8.343   7.542  0.00  0.00    +0.000 HD
ATOM     12  H   UNL     1      -7.573   7.479   9.322  0.00  0.00    +0.000 HD
ATOM     13  H   UNL     1      -8.892   8.421  10.010  0.00  0.00    +0.000 HD
ATOM     14  H   UNL     1      -6.765   9.079  11.068  0.00  0.00    +0.000 HD
ATOM     15  H   UNL     1      -6.036   9.379   9.489  0.00  0.00    +0.000 HD
ATOM     16  H   UNL     1      -8.354  10.941  10.744  0.00  0.00    +0.000 HD
ATOM     17  H   UNL     1      -6.708  11.509  10.487  0.00  0.00    +0.000 HD
ENDROOT
BRANCH   3  18
ATOM     18  C   UNL     1     -10.256  10.599   8.508  0.00  0.00    +0.000 C 
ATOM     19  H   UNL     1     -10.333  11.396   9.257  0.00  0.00    +0.000 HD
ATOM     20  H   UNL     1     -10.563   9.680   9.025  0.00  0.00    +0.000 HD
BRANCH  18  21
ATOM     21  C   UNL     1     -11.225  10.891   7.379  0.00  0.00    +0.000 C 
ATOM     22  H   UNL     1     -11.791  10.008   7.075  0.00  0.00    +0.000 HD
ATOM     23  H   UNL     1     -11.924  11.692   7.634  0.00  0.00    +0.000 HD
BRANCH  21  24
ATOM     24  O   UNL     1     -10.478  11.292   6.239  0.00  0.00    +0.000 OA
ATOM     25  H   UNL     1     -10.046  10.501   5.876  0.00  0.00    +0.000 HD
ENDBRANCH  21  24
ENDBRANCH  18  21
ENDBRANCH   3  18
BRANCH   8  26
ATOM     26  O   UNL     1      -8.032  12.926   7.098  0.00  0.00    +0.000 OA
BRANCH  26  27
ATOM     27  C   UNL     1      -7.043  13.005   6.065  0.00  0.00    +0.000 C 
ATOM     28  H   UNL     1      -6.203  12.352   6.336  0.00  0.00    +0.000 HD
BRANCH  27  29
ATOM     29  C   UNL     1      -6.531  14.436   5.980  0.00  0.00    +0.000 C 
ATOM     30  H   UNL     1      -5.438  14.467   6.054  0.00  0.00    +0.000 HD
ATOM     31  H   UNL     1      -6.787  14.869   5.006  0.00  0.00    +0.000 HD
ATOM     32  H   UNL     1      -6.958  15.077   6.755  0.00  0.00    +0.000 HD
ENDBRANCH  27  29
BRANCH  27  33
ATOM     33  C   UNL     1      -7.666  12.561   4.740  0.00  0.00    +0.000 C 
ATOM     34  H   UNL     1      -8.750  12.717   4.737  0.00  0.00    +0.000 HD
ATOM     35  H   UNL     1      -7.281  13.175   3.916  0.00  0.00    +0.000 HD
BRANCH  33  36
ATOM     36  C   UNL     1      -7.412  11.088   4.448  0.00  0.00    +0.000 C 
ATOM     37  H   UNL     1      -8.078  10.448   5.035  0.00  0.00    +0.000 HD
ATOM     38  H   UNL     1      -6.377  10.805   4.658  0.00  0.00    +0.000 HD
ATOM     39  H   UNL     1      -7.595  10.881   3.388  0.00  0.00    +0.000 HD
ENDBRANCH  33  36
ENDBRANCH  27  33
ENDBRANCH  26  27
ENDBRANCH   8  26
TORSDOF 8
ENDMDL
MODEL 9
REMARK VINA RESULT:    -4.624     15.133     16.767
REMARK INTER + INTRA:          -7.109
REMARK INTER:                  -6.236
REMARK INTRA:                  -0.873
REMARK UNBOUND:                -0.728
REMARK  Name = 125098
REMARK  8 active torsions:
REMARK  status: ('A' for Active; 'I' for Inactive)
REMARK    1  A    between atoms: O_1  and  C_11
REMARK    2  A    between atoms: O_1  and  C_13
REMARK    3  A    between atoms: O_2  and  C_12
REMARK    4  A    between atoms: C_5  and  C_10
REMARK    5  A    between atoms: C_10  and  C_12
REMARK    6  A    between atoms: C_13  and  C_14
REMARK    7  A    between atoms: C_13  and  C_15
REMARK    8  A    between atoms: C_14  and  C_16
REMARK                            x       y       z     vdW  Elec       q    Type
REMARK                         _______ _______ _______ _____ _____    ______ ____
ROOT
ATOM      1  O   UNL     1      -9.369   9.370   7.394  0.00  0.00    +0.000 OA
ATOM      2  N   UNL     1      -8.360  11.394   6.836  0.00  0.00    +0.000 N 
ATOM      3  C   UNL     1      -7.905  12.734   7.265  0.00  0.00    +0.000 C 
ATOM      4  C   UNL     1      -6.676  13.191   6.465  0.00  0.00    +0.000 C 
ATOM      5  C   UNL     1      -6.852  13.023   4.959  0.00  0.00    +0.000 C 
ATOM      6  C   UNL     1      -7.240  11.587   4.630  0.00  0.00    +0.000 C 
ATOM      7  C   UNL     1      -8.488  11.163   5.395  0.00  0.00    +0.000 C 
ATOM      8  C   UNL     1      -8.837  10.426   7.732  0.00  0.00    +0.000 C 
ATOM      9  H   UNL     1      -7.590  12.680   8.313  0.00  0.00    +0.000 HD
ATOM     10  H   UNL     1      -5.813  12.590   6.780  0.00  0.00    +0.000 HD
ATOM     11  H   UNL     1      -6.432  14.234   6.699  0.00  0.00    +0.000 HD
ATOM     12  H   UNL     1      -5.917  13.279   4.448  0.00  0.00    +0.000 HD
ATOM     13  H   UNL     1      -7.617  13.713   4.586  0.00  0.00    +0.000 HD
ATOM     14  H   UNL     1      -7.412  11.484   3.553  0.00  0.00    +0.000 HD
ATOM     15  H   UNL     1      -6.409  10.920   4.891  0.00  0.00    +0.000 HD
ATOM     16  H   UNL     1      -9.360  11.731   5.050  0.00  0.00    +0.000 HD
ATOM     17  H   UNL     1      -8.696  10.107   5.196  0.00  0.00    +0.000 HD
ENDROOT
BRANCH   3  18
ATOM     18  C   UNL     1      -9.054  13.743   7.193  0.00  0.00    +0.000 C 
ATOM     19  H   UNL     1      -9.948  13.299   6.739  0.00  0.00    +0.000 HD
ATOM     20  H   UNL     1      -8.778  14.580   6.538  0.00  0.00    +0.000 HD
BRANCH  18  21
ATOM     21  C   UNL     1      -9.413  14.273   8.567  0.00  0.00    +0.000 C 
ATOM     22  H   UNL     1      -9.186  15.335   8.678  0.00  0.00    +0.000 HD
ATOM     23  H   UNL     1     -10.467  14.107   8.809  0.00  0.00    +0.000 HD
BRANCH  21  24
ATOM     24  O   UNL     1      -8.619  13.596   9.531  0.00  0.00    +0.000 OA
ATOM     25  H   UNL     1      -7.686  13.776   9.323  0.00  0.00    +0.000 HD
ENDBRANCH  21  24
ENDBRANCH  18  21
ENDBRANCH   3  18
BRANCH   8  26
ATOM     26  O   UNL     1      -8.652  10.782   9.042  0.00  0.00    +0.000 OA
BRANCH  26  27
ATOM     27  C   UNL     1      -8.287   9.727   9.939  0.00  0.00    +0.000 C 
ATOM     28  H   UNL     1      -8.679   8.781   9.542  0.00  0.00    +0.000 HD
BRANCH  27  29
ATOM     29  C   UNL     1      -8.933   9.984  11.293  0.00  0.00    +0.000 C 
ATOM     30  H   UNL     1      -8.401   9.452  12.089  0.00  0.00    +0.000 HD
ATOM     31  H   UNL     1      -8.875  11.050  11.539  0.00  0.00    +0.000 HD
ATOM     32  H   UNL     1      -9.986   9.691  11.313  0.00  0.00    +0.000 HD
ENDBRANCH  27  29
BRANCH  27  33
ATOM     33  C   UNL     1      -6.762   9.674  10.054  0.00  0.00    +0.000 C 
ATOM     34  H   UNL     1      -6.448   9.086  10.924  0.00  0.00    +0.000 HD
ATOM     35  H   UNL     1      -6.335   9.159   9.184  0.00  0.00    +0.000 HD
BRANCH  33  36
ATOM     36  C   UNL     1      -6.145  11.060  10.188  0.00  0.00    +0.000 C 
ATOM     37  H   UNL     1      -6.910  11.814  10.396  0.00  0.00    +0.000 HD
ATOM     38  H   UNL     1      -5.601  11.350   9.285  0.00  0.00    +0.000 HD
ATOM     39  H   UNL     1      -5.428  11.070  11.015  0.00  0.00    +0.000 HD
ENDBRANCH  33  36
ENDBRANCH  27  33
ENDBRANCH  26  27
ENDBRANCH   8  26
TORSDOF 8
ENDMDL
MODEL 10
REMARK VINA RESULT:    -4.458     28.734     31.390
REMARK INTER + INTRA:          -6.880
REMARK INTER:                  -6.152
REMARK INTRA:                  -0.728
REMARK UNBOUND:                -0.728
REMARK  Name = 125098
REMARK  8 active torsions:
REMARK  status: ('A' for Active; 'I' for Inactive)
REMARK    1  A    between atoms: O_1  and  C_11
REMARK    2  A    between atoms: O_1  and  C_13
REMARK    3  A    between atoms: O_2  and  C_12
REMARK    4  A    between atoms: C_5  and  C_10
REMARK    5  A    between atoms: C_10  and  C_12
REMARK    6  A    between atoms: C_13  and  C_14
REMARK    7  A    between atoms: C_13  and  C_15
REMARK    8  A    between atoms: C_14  and  C_16
REMARK                            x       y       z     vdW  Elec       q    Type
REMARK                         _______ _______ _______ _____ _____    ______ ____
ROOT
ATOM      1  O   UNL     1     -11.322  -9.460  15.036  0.00  0.00    +0.000 OA
ATOM      2  N   UNL     1     -12.780 -10.598  16.451  0.00  0.00    +0.000 N 
ATOM      3  C   UNL     1     -13.191 -11.876  17.072  0.00  0.00    +0.000 C 
ATOM      4  C   UNL     1     -13.811 -11.650  18.459  0.00  0.00    +0.000 C 
ATOM      5  C   UNL     1     -14.880 -10.561  18.461  0.00  0.00    +0.000 C 
ATOM      6  C   UNL     1     -14.320  -9.271  17.874  0.00  0.00    +0.000 C 
ATOM      7  C   UNL     1     -13.750  -9.500  16.480  0.00  0.00    +0.000 C 
ATOM      8  C   UNL     1     -11.608 -10.458  15.694  0.00  0.00    +0.000 C 
ATOM      9  H   UNL     1     -12.299 -12.493  17.228  0.00  0.00    +0.000 HD
ATOM     10  H   UNL     1     -13.013 -11.351  19.151  0.00  0.00    +0.000 HD
ATOM     11  H   UNL     1     -14.230 -12.585  18.849  0.00  0.00    +0.000 HD
ATOM     12  H   UNL     1     -15.221 -10.382  19.488  0.00  0.00    +0.000 HD
ATOM     13  H   UNL     1     -15.754 -10.885  17.887  0.00  0.00    +0.000 HD
ATOM     14  H   UNL     1     -15.104  -8.507  17.835  0.00  0.00    +0.000 HD
ATOM     15  H   UNL     1     -13.529  -8.889  18.532  0.00  0.00    +0.000 HD
ATOM     16  H   UNL     1     -14.552  -9.754  15.776  0.00  0.00    +0.000 HD
ATOM     17  H   UNL     1     -13.289  -8.576  16.118  0.00  0.00    +0.000 HD
ENDROOT
BRANCH   3  18
ATOM     18  C   UNL     1     -14.121 -12.656  16.139  0.00  0.00    +0.000 C 
ATOM     19  H   UNL     1     -14.124 -12.229  15.129  0.00  0.00    +0.000 HD
ATOM     20  H   UNL     1     -15.157 -12.580  16.492  0.00  0.00    +0.000 HD
BRANCH  18  21
ATOM     21  C   UNL     1     -13.722 -14.116  16.053  0.00  0.00    +0.000 C 
ATOM     22  H   UNL     1     -13.976 -14.672  16.957  0.00  0.00    +0.000 HD
ATOM     23  H   UNL     1     -14.171 -14.614  15.189  0.00  0.00    +0.000 HD
BRANCH  21  24
ATOM     24  O   UNL     1     -12.308 -14.188  15.929  0.00  0.00    +0.000 OA
ATOM     25  H   UNL     1     -11.922 -13.698  16.674  0.00  0.00    +0.000 HD
ENDBRANCH  21  24
ENDBRANCH  18  21
ENDBRANCH   3  18
BRANCH   8  26
ATOM     26  O   UNL     1     -10.802 -11.564  15.759  0.00  0.00    +0.000 OA
BRANCH  26  27
ATOM     27  C   UNL     1      -9.427 -11.327  16.085  0.00  0.00    +0.000 C 
ATOM     28  H   UNL     1      -9.340 -10.320  16.514  0.00  0.00    +0.000 HD
BRANCH  27  29
ATOM     29  C   UNL     1      -8.602 -11.378  14.808  0.00  0.00    +0.000 C 
ATOM     30  H   UNL     1      -8.803 -12.297  14.246  0.00  0.00    +0.000 HD
ATOM     31  H   UNL     1      -8.878 -10.546  14.149  0.00  0.00    +0.000 HD
ATOM     32  H   UNL     1      -7.529 -11.309  15.003  0.00  0.00    +0.000 HD
ENDBRANCH  27  29
BRANCH  27  33
ATOM     33  C   UNL     1      -8.961 -12.385  17.088  0.00  0.00    +0.000 C 
ATOM     34  H   UNL     1      -8.942 -13.382  16.636  0.00  0.00    +0.000 HD
ATOM     35  H   UNL     1      -7.927 -12.184  17.395  0.00  0.00    +0.000 HD
BRANCH  33  36
ATOM     36  C   UNL     1      -9.860 -12.452  18.315  0.00  0.00    +0.000 C 
ATOM     37  H   UNL     1      -9.277 -12.376  19.238  0.00  0.00    +0.000 HD
ATOM     38  H   UNL     1     -10.442 -13.377  18.342  0.00  0.00    +0.000 HD
ATOM     39  H   UNL     1     -10.574 -11.621  18.300  0.00  0.00    +0.000 HD
ENDBRANCH  33  36
ENDBRANCH  27  33
ENDBRANCH  26  27
ENDBRANCH   8  26
TORSDOF 8
ENDMDL
