MODEL 1
REMARK VINA RESULT:    -5.955      0.000      0.000
REMARK INTER + INTRA:          -7.431
REMARK INTER:                  -7.275
REMARK INTRA:                  -0.156
REMARK UNBOUND:                -0.257
REMARK  Name = 62098
REMARK  4 active torsions:
REMARK  status: ('A' for Active; 'I' for Inactive)
REMARK    1  A    between atoms: C_4  and  C_5
REMARK    2  A    between atoms: C_4  and  C_6
REMARK    3  A    between atoms: C_6  and  C_13
REMARK    4  A    between atoms: C_13  and  C_14
REMARK                            x       y       z     vdW  Elec       q    Type
REMARK                         _______ _______ _______ _____ _____    ______ ____
ROOT
ATOM      1  O   UNL     1      -1.151   7.409 -12.411  0.00  0.00    +0.000 OA
ATOM      2  O   UNL     1      -0.628   9.603 -11.561  0.00  0.00    +0.000 OA
ATOM      3  C   UNL     1      -3.310   7.328  -9.445  0.00  0.00    +0.000 A 
ATOM      4  C   UNL     1      -1.825   7.694 -11.264  0.00  0.00    +0.000 A 
ATOM      5  C   UNL     1      -2.714   6.859 -10.619  0.00  0.00    +0.000 A 
ATOM      6  C   UNL     1      -1.525   8.946 -10.779  0.00  0.00    +0.000 A 
ATOM      7  C   UNL     1      -3.004   8.607  -8.950  0.00  0.00    +0.000 A 
ATOM      8  C   UNL     1      -2.100   9.432  -9.622  0.00  0.00    +0.000 A 
ATOM      9  C   UNL     1      -0.394   8.624 -12.594  0.00  0.00    +0.000 C 
ATOM     10  H   UNL     1      -2.941   5.875 -11.015  0.00  0.00    +0.000 HD
ATOM     11  H   UNL     1      -3.472   8.968  -8.037  0.00  0.00    +0.000 HD
ATOM     12  H   UNL     1      -1.862  10.420  -9.244  0.00  0.00    +0.000 HD
ATOM     13  H   UNL     1      -0.664   9.063 -13.562  0.00  0.00    +0.000 HD
ATOM     14  H   UNL     1       0.673   8.374 -12.607  0.00  0.00    +0.000 HD
ENDROOT
BRANCH   3  15
ATOM     15  C   UNL     1      -4.279   6.464  -8.711  0.00  0.00    +0.000 C 
ATOM     16  H   UNL     1      -3.791   5.527  -8.414  0.00  0.00    +0.000 HD
ATOM     17  H   UNL     1      -4.567   6.947  -7.768  0.00  0.00    +0.000 HD
BRANCH  15  18
ATOM     18  C   UNL     1      -5.530   6.158  -9.542  0.00  0.00    +0.000 C 
ATOM     19  H   UNL     1      -5.271   5.508 -10.387  0.00  0.00    +0.000 HD
ATOM     20  H   UNL     1      -5.948   7.088  -9.946  0.00  0.00    +0.000 HD
BRANCH  18  22
ATOM     21  O   UNL     1      -6.442   4.408  -8.145  0.00  0.00    +0.000 OA
ATOM     22  C   UNL     1      -6.621   5.468  -8.743  0.00  0.00    +0.000 C 
BRANCH  22  23
ATOM     23  C   UNL     1      -7.961   6.156  -8.718  0.00  0.00    +0.000 C 
ATOM     24  H   UNL     1      -8.399   6.077  -7.719  0.00  0.00    +0.000 HD
ATOM     25  H   UNL     1      -7.836   7.212  -8.966  0.00  0.00    +0.000 HD
ATOM     26  H   UNL     1      -8.632   5.677  -9.436  0.00  0.00    +0.000 HD
ENDBRANCH  22  23
ENDBRANCH  18  22
ENDBRANCH  15  18
ENDBRANCH   3  15
TORSDOF 4
ENDMDL
MODEL 2
REMARK VINA RESULT:    -5.644      2.517      6.491
REMARK INTER + INTRA:          -7.057
REMARK INTER:                  -6.761
REMARK INTRA:                  -0.295
REMARK UNBOUND:                -0.257
REMARK  Name = 62098
REMARK  4 active torsions:
REMARK  status: ('A' for Active; 'I' for Inactive)
REMARK    1  A    between atoms: C_4  and  C_5
REMARK    2  A    between atoms: C_4  and  C_6
REMARK    3  A    between atoms: C_6  and  C_13
REMARK    4  A    between atoms: C_13  and  C_14
REMARK                            x       y       z     vdW  Elec       q    Type
REMARK                         _______ _______ _______ _____ _____    ______ ____
ROOT
ATOM      1  O   UNL     1      -2.975   6.418 -10.182  0.00  0.00    +0.000 OA
ATOM      2  O   UNL     1      -3.138   8.272  -8.651  0.00  0.00    +0.000 OA
ATOM      3  C   UNL     1      -0.904   8.798 -12.054  0.00  0.00    +0.000 A 
ATOM      4  C   UNL     1      -2.280   7.506 -10.611  0.00  0.00    +0.000 A 
ATOM      5  C   UNL     1      -1.552   7.592 -11.781  0.00  0.00    +0.000 A 
ATOM      6  C   UNL     1      -2.374   8.565  -9.737  0.00  0.00    +0.000 A 
ATOM      7  C   UNL     1      -0.999   9.880 -11.161  0.00  0.00    +0.000 A 
ATOM      8  C   UNL     1      -1.743   9.767  -9.984  0.00  0.00    +0.000 A 
ATOM      9  C   UNL     1      -3.516   6.911  -8.938  0.00  0.00    +0.000 C 
ATOM     10  H   UNL     1      -1.487   6.747 -12.458  0.00  0.00    +0.000 HD
ATOM     11  H   UNL     1      -0.491  10.817 -11.378  0.00  0.00    +0.000 HD
ATOM     12  H   UNL     1      -1.819  10.598  -9.293  0.00  0.00    +0.000 HD
ATOM     13  H   UNL     1      -3.163   6.268  -8.123  0.00  0.00    +0.000 HD
ATOM     14  H   UNL     1      -4.610   6.851  -8.984  0.00  0.00    +0.000 HD
ENDROOT
BRANCH   3  15
ATOM     15  C   UNL     1      -0.103   8.942 -13.304  0.00  0.00    +0.000 C 
ATOM     16  H   UNL     1       0.944   9.155 -13.052  0.00  0.00    +0.000 HD
ATOM     17  H   UNL     1      -0.078   7.984 -13.842  0.00  0.00    +0.000 HD
BRANCH  15  18
ATOM     18  C   UNL     1      -0.650  10.041 -14.222  0.00  0.00    +0.000 C 
ATOM     19  H   UNL     1      -1.506  10.536 -13.748  0.00  0.00    +0.000 HD
ATOM     20  H   UNL     1      -0.993   9.602 -15.168  0.00  0.00    +0.000 HD
BRANCH  18  22
ATOM     21  O   UNL     1       1.351  10.894 -15.275  0.00  0.00    +0.000 OA
ATOM     22  C   UNL     1       0.379  11.107 -14.553  0.00  0.00    +0.000 C 
BRANCH  22  23
ATOM     23  C   UNL     1       0.149  12.463 -13.939  0.00  0.00    +0.000 C 
ATOM     24  H   UNL     1      -0.536  12.374 -13.091  0.00  0.00    +0.000 HD
ATOM     25  H   UNL     1       1.099  12.870 -13.584  0.00  0.00    +0.000 HD
ATOM     26  H   UNL     1      -0.294  13.132 -14.682  0.00  0.00    +0.000 HD
ENDBRANCH  22  23
ENDBRANCH  18  22
ENDBRANCH  15  18
ENDBRANCH   3  15
TORSDOF 4
ENDMDL
MODEL 3
REMARK VINA RESULT:    -5.623      1.450      5.911
REMARK INTER + INTRA:          -7.031
REMARK INTER:                  -6.679
REMARK INTRA:                  -0.352
REMARK UNBOUND:                -0.257
REMARK  Name = 62098
REMARK  4 active torsions:
REMARK  status: ('A' for Active; 'I' for Inactive)
REMARK    1  A    between atoms: C_4  and  C_5
REMARK    2  A    between atoms: C_4  and  C_6
REMARK    3  A    between atoms: C_6  and  C_13
REMARK    4  A    between atoms: C_13  and  C_14
REMARK                            x       y       z     vdW  Elec       q    Type
REMARK                         _______ _______ _______ _____ _____    ______ ____
ROOT
ATOM      1  O   UNL     1      -6.870   6.083 -10.441  0.00  0.00    +0.000 OA
ATOM      2  O   UNL     1      -5.941   6.052  -8.217  0.00  0.00    +0.000 OA
ATOM      3  C   UNL     1      -3.408   6.910 -11.331  0.00  0.00    +0.000 A 
ATOM      4  C   UNL     1      -5.539   6.364 -10.432  0.00  0.00    +0.000 A 
ATOM      5  C   UNL     1      -4.763   6.643 -11.539  0.00  0.00    +0.000 A 
ATOM      6  C   UNL     1      -5.009   6.347  -9.163  0.00  0.00    +0.000 A 
ATOM      7  C   UNL     1      -2.867   6.892 -10.034  0.00  0.00    +0.000 A 
ATOM      8  C   UNL     1      -3.674   6.607  -8.930  0.00  0.00    +0.000 A 
ATOM      9  C   UNL     1      -7.118   5.886  -9.033  0.00  0.00    +0.000 C 
ATOM     10  H   UNL     1      -5.197   6.651 -12.534  0.00  0.00    +0.000 HD
ATOM     11  H   UNL     1      -1.810   7.099  -9.878  0.00  0.00    +0.000 HD
ATOM     12  H   UNL     1      -3.260   6.592  -7.928  0.00  0.00    +0.000 HD
ATOM     13  H   UNL     1      -7.509   4.872  -8.884  0.00  0.00    +0.000 HD
ATOM     14  H   UNL     1      -7.877   6.606  -8.706  0.00  0.00    +0.000 HD
ENDROOT
BRANCH   3  15
ATOM     15  C   UNL     1      -2.527   7.217 -12.495  0.00  0.00    +0.000 C 
ATOM     16  H   UNL     1      -2.639   6.439 -13.261  0.00  0.00    +0.000 HD
ATOM     17  H   UNL     1      -2.860   8.145 -12.979  0.00  0.00    +0.000 HD
BRANCH  15  18
ATOM     18  C   UNL     1      -1.053   7.339 -12.091  0.00  0.00    +0.000 C 
ATOM     19  H   UNL     1      -0.452   6.593 -12.625  0.00  0.00    +0.000 HD
ATOM     20  H   UNL     1      -0.944   7.156 -11.015  0.00  0.00    +0.000 HD
BRANCH  18  22
ATOM     21  O   UNL     1       0.256   8.926 -13.361  0.00  0.00    +0.000 OA
ATOM     22  C   UNL     1      -0.467   8.708 -12.390  0.00  0.00    +0.000 C 
BRANCH  22  23
ATOM     23  C   UNL     1      -0.817   9.806 -11.420  0.00  0.00    +0.000 C 
ATOM     24  H   UNL     1       0.018  10.509 -11.341  0.00  0.00    +0.000 HD
ATOM     25  H   UNL     1      -1.698  10.343 -11.777  0.00  0.00    +0.000 HD
ATOM     26  H   UNL     1      -1.010   9.375 -10.434  0.00  0.00    +0.000 HD
ENDBRANCH  22  23
ENDBRANCH  18  22
ENDBRANCH  15  18
ENDBRANCH   3  15
TORSDOF 4
ENDMDL
MODEL 4
REMARK VINA RESULT:    -5.257     23.033     24.861
REMARK INTER + INTRA:          -6.590
REMARK INTER:                  -6.334
REMARK INTRA:                  -0.256
REMARK UNBOUND:                -0.257
REMARK  Name = 62098
REMARK  4 active torsions:
REMARK  status: ('A' for Active; 'I' for Inactive)
REMARK    1  A    between atoms: C_4  and  C_5
REMARK    2  A    between atoms: C_4  and  C_6
REMARK    3  A    between atoms: C_6  and  C_13
REMARK    4  A    between atoms: C_13  and  C_14
REMARK                            x       y       z     vdW  Elec       q    Type
REMARK                         _______ _______ _______ _____ _____    ______ ____
ROOT
ATOM      1  O   UNL     1     -20.724  -3.211   1.331  0.00  0.00    +0.000 OA
ATOM      2  O   UNL     1     -19.204  -5.079   1.228  0.00  0.00    +0.000 OA
ATOM      3  C   UNL     1     -20.417  -3.808   4.938  0.00  0.00    +0.000 A 
ATOM      4  C   UNL     1     -20.400  -3.683   2.565  0.00  0.00    +0.000 A 
ATOM      5  C   UNL     1     -20.861  -3.188   3.768  0.00  0.00    +0.000 A 
ATOM      6  C   UNL     1     -19.533  -4.750   2.506  0.00  0.00    +0.000 A 
ATOM      7  C   UNL     1     -19.531  -4.898   4.878  0.00  0.00    +0.000 A 
ATOM      8  C   UNL     1     -19.079  -5.380   3.647  0.00  0.00    +0.000 A 
ATOM      9  C   UNL     1     -19.962  -4.101   0.488  0.00  0.00    +0.000 C 
ATOM     10  H   UNL     1     -21.543  -2.345   3.797  0.00  0.00    +0.000 HD
ATOM     11  H   UNL     1     -19.186  -5.376   5.792  0.00  0.00    +0.000 HD
ATOM     12  H   UNL     1     -18.396  -6.220   3.596  0.00  0.00    +0.000 HD
ATOM     13  H   UNL     1     -19.268  -3.504  -0.116  0.00  0.00    +0.000 HD
ATOM     14  H   UNL     1     -20.652  -4.624  -0.184  0.00  0.00    +0.000 HD
ENDROOT
BRANCH   3  15
ATOM     15  C   UNL     1     -20.885  -3.310   6.264  0.00  0.00    +0.000 C 
ATOM     16  H   UNL     1     -21.429  -4.106   6.789  0.00  0.00    +0.000 HD
ATOM     17  H   UNL     1     -20.021  -3.085   6.903  0.00  0.00    +0.000 HD
BRANCH  15  18
ATOM     18  C   UNL     1     -21.777  -2.069   6.136  0.00  0.00    +0.000 C 
ATOM     19  H   UNL     1     -22.713  -2.220   6.687  0.00  0.00    +0.000 HD
ATOM     20  H   UNL     1     -22.027  -1.895   5.083  0.00  0.00    +0.000 HD
BRANCH  18  22
ATOM     21  O   UNL     1     -20.395  -0.091   5.985  0.00  0.00    +0.000 OA
ATOM     22  C   UNL     1     -21.121  -0.809   6.672  0.00  0.00    +0.000 C 
BRANCH  22  23
ATOM     23  C   UNL     1     -21.404  -0.475   8.113  0.00  0.00    +0.000 C 
ATOM     24  H   UNL     1     -21.955   0.468   8.172  0.00  0.00    +0.000 HD
ATOM     25  H   UNL     1     -22.010  -1.266   8.561  0.00  0.00    +0.000 HD
ATOM     26  H   UNL     1     -20.461  -0.368   8.657  0.00  0.00    +0.000 HD
ENDBRANCH  22  23
ENDBRANCH  18  22
ENDBRANCH  15  18
ENDBRANCH   3  15
TORSDOF 4
ENDMDL
MODEL 5
REMARK VINA RESULT:    -5.231      2.959      4.197
REMARK INTER + INTRA:          -6.558
REMARK INTER:                  -6.213
REMARK INTRA:                  -0.345
REMARK UNBOUND:                -0.257
REMARK  Name = 62098
REMARK  4 active torsions:
REMARK  status: ('A' for Active; 'I' for Inactive)
REMARK    1  A    between atoms: C_4  and  C_5
REMARK    2  A    between atoms: C_4  and  C_6
REMARK    3  A    between atoms: C_6  and  C_13
REMARK    4  A    between atoms: C_13  and  C_14
REMARK                            x       y       z     vdW  Elec       q    Type
REMARK                         _______ _______ _______ _____ _____    ______ ____
ROOT
ATOM      1  O   UNL     1      -1.925   7.674 -16.086  0.00  0.00    +0.000 OA
ATOM      2  O   UNL     1      -0.098   9.235 -15.900  0.00  0.00    +0.000 OA
ATOM      3  C   UNL     1      -1.458   7.471 -12.453  0.00  0.00    +0.000 A 
ATOM      4  C   UNL     1      -1.504   7.827 -14.801  0.00  0.00    +0.000 A 
ATOM      5  C   UNL     1      -2.026   7.186 -13.696  0.00  0.00    +0.000 A 
ATOM      6  C   UNL     1      -0.460   8.718 -14.695  0.00  0.00    +0.000 A 
ATOM      7  C   UNL     1      -0.392   8.381 -12.344  0.00  0.00    +0.000 A 
ATOM      8  C   UNL     1       0.118   9.017 -13.479  0.00  0.00    +0.000 A 
ATOM      9  C   UNL     1      -1.029   8.570 -16.777  0.00  0.00    +0.000 C 
ATOM     10  H   UNL     1      -2.850   6.488 -13.796  0.00  0.00    +0.000 HD
ATOM     11  H   UNL     1       0.045   8.602 -11.373  0.00  0.00    +0.000 HD
ATOM     12  H   UNL     1       0.939   9.720 -13.400  0.00  0.00    +0.000 HD
ATOM     13  H   UNL     1      -1.625   9.329 -17.298  0.00  0.00    +0.000 HD
ATOM     14  H   UNL     1      -0.464   7.996 -17.521  0.00  0.00    +0.000 HD
ENDROOT
BRANCH   3  15
ATOM     15  C   UNL     1      -1.987   6.805 -11.227  0.00  0.00    +0.000 C 
ATOM     16  H   UNL     1      -2.159   5.739 -11.427  0.00  0.00    +0.000 HD
ATOM     17  H   UNL     1      -1.227   6.828 -10.434  0.00  0.00    +0.000 HD
BRANCH  15  18
ATOM     18  C   UNL     1      -3.282   7.455 -10.726  0.00  0.00    +0.000 C 
ATOM     19  H   UNL     1      -4.021   6.682 -10.481  0.00  0.00    +0.000 HD
ATOM     20  H   UNL     1      -3.707   8.095 -11.508  0.00  0.00    +0.000 HD
BRANCH  18  22
ATOM     21  O   UNL     1      -3.231   7.879  -8.346  0.00  0.00    +0.000 OA
ATOM     22  C   UNL     1      -3.078   8.310  -9.488  0.00  0.00    +0.000 C 
BRANCH  22  23
ATOM     23  C   UNL     1      -2.672   9.741  -9.730  0.00  0.00    +0.000 C 
ATOM     24  H   UNL     1      -2.478  10.237  -8.775  0.00  0.00    +0.000 HD
ATOM     25  H   UNL     1      -1.762   9.767 -10.332  0.00  0.00    +0.000 HD
ATOM     26  H   UNL     1      -3.480  10.269 -10.244  0.00  0.00    +0.000 HD
ENDBRANCH  22  23
ENDBRANCH  18  22
ENDBRANCH  15  18
ENDBRANCH   3  15
TORSDOF 4
ENDMDL
MODEL 6
REMARK VINA RESULT:    -5.091      3.037      4.878
REMARK INTER + INTRA:          -6.391
REMARK INTER:                  -6.134
REMARK INTRA:                  -0.257
REMARK UNBOUND:                -0.257
REMARK  Name = 62098
REMARK  4 active torsions:
REMARK  status: ('A' for Active; 'I' for Inactive)
REMARK    1  A    between atoms: C_4  and  C_5
REMARK    2  A    between atoms: C_4  and  C_6
REMARK    3  A    between atoms: C_6  and  C_13
REMARK    4  A    between atoms: C_13  and  C_14
REMARK                            x       y       z     vdW  Elec       q    Type
REMARK                         _______ _______ _______ _____ _____    ______ ____
ROOT
ATOM      1  O   UNL     1      -0.160  12.354 -14.804  0.00  0.00    +0.000 OA
ATOM      2  O   UNL     1       0.596  10.357 -15.921  0.00  0.00    +0.000 OA
ATOM      3  C   UNL     1      -0.763   9.988 -12.066  0.00  0.00    +0.000 A 
ATOM      4  C   UNL     1      -0.260  11.251 -14.014  0.00  0.00    +0.000 A 
ATOM      5  C   UNL     1      -0.734  11.223 -12.719  0.00  0.00    +0.000 A 
ATOM      6  C   UNL     1       0.171  10.110 -14.653  0.00  0.00    +0.000 A 
ATOM      7  C   UNL     1      -0.322   8.823 -12.718  0.00  0.00    +0.000 A 
ATOM      8  C   UNL     1       0.153   8.880 -14.030  0.00  0.00    +0.000 A 
ATOM      9  C   UNL     1       0.384  11.780 -16.011  0.00  0.00    +0.000 C 
ATOM     10  H   UNL     1      -1.068  12.131 -12.229  0.00  0.00    +0.000 HD
ATOM     11  H   UNL     1      -0.345   7.865 -12.203  0.00  0.00    +0.000 HD
ATOM     12  H   UNL     1       0.494   7.984 -14.536  0.00  0.00    +0.000 HD
ATOM     13  H   UNL     1       1.343  12.265 -16.229  0.00  0.00    +0.000 HD
ATOM     14  H   UNL     1      -0.308  11.982 -16.837  0.00  0.00    +0.000 HD
ENDROOT
BRANCH   3  15
ATOM     15  C   UNL     1      -1.265   9.904 -10.663  0.00  0.00    +0.000 C 
ATOM     16  H   UNL     1      -0.618   9.239 -10.076  0.00  0.00    +0.000 HD
ATOM     17  H   UNL     1      -1.180  10.886 -10.178  0.00  0.00    +0.000 HD
BRANCH  15  18
ATOM     18  C   UNL     1      -2.716   9.414 -10.594  0.00  0.00    +0.000 C 
ATOM     19  H   UNL     1      -3.030   9.026 -11.571  0.00  0.00    +0.000 HD
ATOM     20  H   UNL     1      -3.380  10.246 -10.330  0.00  0.00    +0.000 HD
BRANCH  18  22
ATOM     21  O   UNL     1      -3.007   8.533  -8.362  0.00  0.00    +0.000 OA
ATOM     22  C   UNL     1      -2.923   8.313  -9.569  0.00  0.00    +0.000 C 
BRANCH  22  23
ATOM     23  C   UNL     1      -3.018   6.911 -10.112  0.00  0.00    +0.000 C 
ATOM     24  H   UNL     1      -2.205   6.302  -9.707  0.00  0.00    +0.000 HD
ATOM     25  H   UNL     1      -3.971   6.468  -9.816  0.00  0.00    +0.000 HD
ATOM     26  H   UNL     1      -2.934   6.933 -11.202  0.00  0.00    +0.000 HD
ENDBRANCH  22  23
ENDBRANCH  18  22
ENDBRANCH  15  18
ENDBRANCH   3  15
TORSDOF 4
ENDMDL
MODEL 7
REMARK VINA RESULT:    -5.022     31.047     33.875
REMARK INTER + INTRA:          -6.307
REMARK INTER:                  -6.028
REMARK INTRA:                  -0.279
REMARK UNBOUND:                -0.257
REMARK  Name = 62098
REMARK  4 active torsions:
REMARK  status: ('A' for Active; 'I' for Inactive)
REMARK    1  A    between atoms: C_4  and  C_5
REMARK    2  A    between atoms: C_4  and  C_6
REMARK    3  A    between atoms: C_6  and  C_13
REMARK    4  A    between atoms: C_13  and  C_14
REMARK                            x       y       z     vdW  Elec       q    Type
REMARK                         _______ _______ _______ _____ _____    ______ ____
ROOT
ATOM      1  O   UNL     1     -10.604  -9.508  14.758  0.00  0.00    +0.000 OA
ATOM      2  O   UNL     1      -8.536 -10.329  13.834  0.00  0.00    +0.000 OA
ATOM      3  C   UNL     1      -9.861 -12.011  17.335  0.00  0.00    +0.000 A 
ATOM      4  C   UNL     1     -10.051 -10.491  15.519  0.00  0.00    +0.000 A 
ATOM      5  C   UNL     1     -10.575 -10.997  16.692  0.00  0.00    +0.000 A 
ATOM      6  C   UNL     1      -8.871 -10.960  14.991  0.00  0.00    +0.000 A 
ATOM      7  C   UNL     1      -8.654 -12.490  16.796  0.00  0.00    +0.000 A 
ATOM      8  C   UNL     1      -8.147 -11.960  15.607  0.00  0.00    +0.000 A 
ATOM      9  C   UNL     1      -9.638  -9.410  13.691  0.00  0.00    +0.000 C 
ATOM     10  H   UNL     1     -11.506 -10.615  17.096  0.00  0.00    +0.000 HD
ATOM     11  H   UNL     1      -8.102 -13.278  17.302  0.00  0.00    +0.000 HD
ATOM     12  H   UNL     1      -7.217 -12.326  15.188  0.00  0.00    +0.000 HD
ATOM     13  H   UNL     1      -9.242  -8.388  13.669  0.00  0.00    +0.000 HD
ATOM     14  H   UNL     1     -10.144  -9.612  12.740  0.00  0.00    +0.000 HD
ENDROOT
BRANCH   3  15
ATOM     15  C   UNL     1     -10.383 -12.591  18.607  0.00  0.00    +0.000 C 
ATOM     16  H   UNL     1      -9.613 -12.531  19.386  0.00  0.00    +0.000 HD
ATOM     17  H   UNL     1     -11.216 -11.980  18.980  0.00  0.00    +0.000 HD
BRANCH  15  18
ATOM     18  C   UNL     1     -10.839 -14.045  18.438  0.00  0.00    +0.000 C 
ATOM     19  H   UNL     1     -10.932 -14.290  17.372  0.00  0.00    +0.000 HD
ATOM     20  H   UNL     1     -11.822 -14.186  18.905  0.00  0.00    +0.000 HD
BRANCH  18  22
ATOM     21  O   UNL     1      -9.436 -14.920  20.201  0.00  0.00    +0.000 OA
ATOM     22  C   UNL     1      -9.882 -15.045  19.062  0.00  0.00    +0.000 C 
BRANCH  22  23
ATOM     23  C   UNL     1      -9.494 -16.219  18.200  0.00  0.00    +0.000 C 
ATOM     24  H   UNL     1     -10.215 -17.030  18.335  0.00  0.00    +0.000 HD
ATOM     25  H   UNL     1      -9.493 -15.918  17.150  0.00  0.00    +0.000 HD
ATOM     26  H   UNL     1      -8.503 -16.576  18.492  0.00  0.00    +0.000 HD
ENDBRANCH  22  23
ENDBRANCH  18  22
ENDBRANCH  15  18
ENDBRANCH   3  15
TORSDOF 4
ENDMDL
MODEL 8
REMARK VINA RESULT:    -4.957     26.752     27.319
REMARK INTER + INTRA:          -6.228
REMARK INTER:                  -5.902
REMARK INTRA:                  -0.327
REMARK UNBOUND:                -0.257
REMARK  Name = 62098
REMARK  4 active torsions:
REMARK  status: ('A' for Active; 'I' for Inactive)
REMARK    1  A    between atoms: C_4  and  C_5
REMARK    2  A    between atoms: C_4  and  C_6
REMARK    3  A    between atoms: C_6  and  C_13
REMARK    4  A    between atoms: C_13  and  C_14
REMARK                            x       y       z     vdW  Elec       q    Type
REMARK                         _______ _______ _______ _____ _____    ______ ____
ROOT
ATOM      1  O   UNL     1      15.997  -5.125   6.839  0.00  0.00    +0.000 OA
ATOM      2  O   UNL     1      14.559  -4.429   5.034  0.00  0.00    +0.000 OA
ATOM      3  C   UNL     1      13.463  -3.399   8.853  0.00  0.00    +0.000 A 
ATOM      4  C   UNL     1      14.914  -4.429   7.279  0.00  0.00    +0.000 A 
ATOM      5  C   UNL     1      14.626  -4.128   8.595  0.00  0.00    +0.000 A 
ATOM      6  C   UNL     1      14.094  -4.031   6.249  0.00  0.00    +0.000 A 
ATOM      7  C   UNL     1      12.624  -2.993   7.801  0.00  0.00    +0.000 A 
ATOM      8  C   UNL     1      12.939  -3.311   6.478  0.00  0.00    +0.000 A 
ATOM      9  C   UNL     1      15.766  -5.121   5.414  0.00  0.00    +0.000 C 
ATOM     10  H   UNL     1      15.283  -4.451   9.396  0.00  0.00    +0.000 HD
ATOM     11  H   UNL     1      11.719  -2.427   8.008  0.00  0.00    +0.000 HD
ATOM     12  H   UNL     1      12.295  -3.000   5.663  0.00  0.00    +0.000 HD
ATOM     13  H   UNL     1      15.699  -6.159   5.067  0.00  0.00    +0.000 HD
ATOM     14  H   UNL     1      16.618  -4.639   4.922  0.00  0.00    +0.000 HD
ENDROOT
BRANCH   3  15
ATOM     15  C   UNL     1      13.106  -3.049  10.259  0.00  0.00    +0.000 C 
ATOM     16  H   UNL     1      13.187  -3.940  10.896  0.00  0.00    +0.000 HD
ATOM     17  H   UNL     1      13.841  -2.341  10.664  0.00  0.00    +0.000 HD
BRANCH  15  18
ATOM     18  C   UNL     1      11.696  -2.457  10.370  0.00  0.00    +0.000 C 
ATOM     19  H   UNL     1      11.363  -2.090   9.391  0.00  0.00    +0.000 HD
ATOM     20  H   UNL     1      11.700  -1.610  11.067  0.00  0.00    +0.000 HD
BRANCH  18  22
ATOM     21  O   UNL     1       9.456  -3.279  10.757  0.00  0.00    +0.000 OA
ATOM     22  C   UNL     1      10.668  -3.459  10.864  0.00  0.00    +0.000 C 
BRANCH  22  23
ATOM     23  C   UNL     1      11.214  -4.707  11.509  0.00  0.00    +0.000 C 
ATOM     24  H   UNL     1      11.666  -5.349  10.748  0.00  0.00    +0.000 HD
ATOM     25  H   UNL     1      11.978  -4.437  12.241  0.00  0.00    +0.000 HD
ATOM     26  H   UNL     1      10.402  -5.254  11.995  0.00  0.00    +0.000 HD
ENDBRANCH  22  23
ENDBRANCH  18  22
ENDBRANCH  15  18
ENDBRANCH   3  15
TORSDOF 4
ENDMDL
MODEL 9
REMARK VINA RESULT:    -4.721     33.679     36.903
REMARK INTER + INTRA:          -5.944
REMARK INTER:                  -5.687
REMARK INTRA:                  -0.257
REMARK UNBOUND:                -0.257
REMARK  Name = 62098
REMARK  4 active torsions:
REMARK  status: ('A' for Active; 'I' for Inactive)
REMARK    1  A    between atoms: C_4  and  C_5
REMARK    2  A    between atoms: C_4  and  C_6
REMARK    3  A    between atoms: C_6  and  C_13
REMARK    4  A    between atoms: C_13  and  C_14
REMARK                            x       y       z     vdW  Elec       q    Type
REMARK                         _______ _______ _______ _____ _____    ______ ____
ROOT
ATOM      1  O   UNL     1     -13.844  -8.644  23.894  0.00  0.00    +0.000 OA
ATOM      2  O   UNL     1     -14.810  -7.249  25.605  0.00  0.00    +0.000 OA
ATOM      3  C   UNL     1     -14.823  -5.829  21.754  0.00  0.00    +0.000 A 
ATOM      4  C   UNL     1     -14.319  -7.470  23.397  0.00  0.00    +0.000 A 
ATOM      5  C   UNL     1     -14.281  -7.075  22.075  0.00  0.00    +0.000 A 
ATOM      6  C   UNL     1     -14.871  -6.674  24.374  0.00  0.00    +0.000 A 
ATOM      7  C   UNL     1     -15.387  -5.015  22.753  0.00  0.00    +0.000 A 
ATOM      8  C   UNL     1     -15.414  -5.439  24.083  0.00  0.00    +0.000 A 
ATOM      9  C   UNL     1     -14.158  -8.497  25.294  0.00  0.00    +0.000 C 
ATOM     10  H   UNL     1     -13.840  -7.714  21.317  0.00  0.00    +0.000 HD
ATOM     11  H   UNL     1     -15.806  -4.045  22.498  0.00  0.00    +0.000 HD
ATOM     12  H   UNL     1     -15.847  -4.815  24.857  0.00  0.00    +0.000 HD
ATOM     13  H   UNL     1     -13.227  -8.560  25.871  0.00  0.00    +0.000 HD
ATOM     14  H   UNL     1     -14.814  -9.322  25.595  0.00  0.00    +0.000 HD
ENDROOT
BRANCH   3  15
ATOM     15  C   UNL     1     -14.805  -5.355  20.340  0.00  0.00    +0.000 C 
ATOM     16  H   UNL     1     -15.825  -5.112  20.016  0.00  0.00    +0.000 HD
ATOM     17  H   UNL     1     -14.251  -4.409  20.272  0.00  0.00    +0.000 HD
BRANCH  15  18
ATOM     18  C   UNL     1     -14.190  -6.389  19.389  0.00  0.00    +0.000 C 
ATOM     19  H   UNL     1     -14.981  -6.989  18.922  0.00  0.00    +0.000 HD
ATOM     20  H   UNL     1     -13.533  -7.067  19.947  0.00  0.00    +0.000 HD
BRANCH  18  22
ATOM     21  O   UNL     1     -12.993  -6.386  17.289  0.00  0.00    +0.000 OA
ATOM     22  C   UNL     1     -13.368  -5.759  18.278  0.00  0.00    +0.000 C 
BRANCH  22  23
ATOM     23  C   UNL     1     -13.025  -4.302  18.450  0.00  0.00    +0.000 C 
ATOM     24  H   UNL     1     -13.603  -3.882  19.278  0.00  0.00    +0.000 HD
ATOM     25  H   UNL     1     -11.961  -4.200  18.674  0.00  0.00    +0.000 HD
ATOM     26  H   UNL     1     -13.272  -3.757  17.535  0.00  0.00    +0.000 HD
ENDBRANCH  22  23
ENDBRANCH  18  22
ENDBRANCH  15  18
ENDBRANCH   3  15
TORSDOF 4
ENDMDL
MODEL 10
REMARK VINA RESULT:    -4.686      7.938      9.764
REMARK INTER + INTRA:          -5.902
REMARK INTER:                  -5.690
REMARK INTRA:                  -0.212
REMARK UNBOUND:                -0.257
REMARK  Name = 62098
REMARK  4 active torsions:
REMARK  status: ('A' for Active; 'I' for Inactive)
REMARK    1  A    between atoms: C_4  and  C_5
REMARK    2  A    between atoms: C_4  and  C_6
REMARK    3  A    between atoms: C_6  and  C_13
REMARK    4  A    between atoms: C_13  and  C_14
REMARK                            x       y       z     vdW  Elec       q    Type
REMARK                         _______ _______ _______ _____ _____    ______ ____
ROOT
ATOM      1  O   UNL     1      -5.327  -0.379 -12.234  0.00  0.00    +0.000 OA
ATOM      2  O   UNL     1      -5.419  -0.472  -9.828  0.00  0.00    +0.000 OA
ATOM      3  C   UNL     1      -1.715  -0.400 -11.593  0.00  0.00    +0.000 A 
ATOM      4  C   UNL     1      -4.089  -0.401 -11.669  0.00  0.00    +0.000 A 
ATOM      5  C   UNL     1      -2.889  -0.372 -12.349  0.00  0.00    +0.000 A 
ATOM      6  C   UNL     1      -4.142  -0.454 -10.295  0.00  0.00    +0.000 A 
ATOM      7  C   UNL     1      -1.769  -0.454 -10.189  0.00  0.00    +0.000 A 
ATOM      8  C   UNL     1      -2.997  -0.482  -9.526  0.00  0.00    +0.000 A 
ATOM      9  C   UNL     1      -6.166  -0.425 -11.061  0.00  0.00    +0.000 C 
ATOM     10  H   UNL     1      -2.864  -0.333 -13.433  0.00  0.00    +0.000 HD
ATOM     11  H   UNL     1      -0.851  -0.477  -9.605  0.00  0.00    +0.000 HD
ATOM     12  H   UNL     1      -3.044  -0.524  -8.444  0.00  0.00    +0.000 HD
ATOM     13  H   UNL     1      -6.803  -1.315 -11.120  0.00  0.00    +0.000 HD
ATOM     14  H   UNL     1      -6.805   0.465 -11.052  0.00  0.00    +0.000 HD
ENDROOT
BRANCH   3  15
ATOM     15  C   UNL     1      -0.391  -0.372 -12.280  0.00  0.00    +0.000 C 
ATOM     16  H   UNL     1       0.344   0.148 -11.651  0.00  0.00    +0.000 HD
ATOM     17  H   UNL     1      -0.004  -1.395 -12.384  0.00  0.00    +0.000 HD
BRANCH  15  18
ATOM     18  C   UNL     1      -0.464   0.299 -13.656  0.00  0.00    +0.000 C 
ATOM     19  H   UNL     1      -0.992   1.258 -13.581  0.00  0.00    +0.000 HD
ATOM     20  H   UNL     1      -1.019  -0.339 -14.355  0.00  0.00    +0.000 HD
BRANCH  18  22
ATOM     21  O   UNL     1       1.069   0.806 -15.456  0.00  0.00    +0.000 OA
ATOM     22  C   UNL     1       0.903   0.568 -14.260  0.00  0.00    +0.000 C 
BRANCH  22  23
ATOM     23  C   UNL     1       2.069   0.525 -13.307  0.00  0.00    +0.000 C 
ATOM     24  H   UNL     1       2.203  -0.493 -12.933  0.00  0.00    +0.000 HD
ATOM     25  H   UNL     1       2.979   0.832 -13.828  0.00  0.00    +0.000 HD
ATOM     26  H   UNL     1       1.876   1.190 -12.461  0.00  0.00    +0.000 HD
ENDBRANCH  22  23
ENDBRANCH  18  22
ENDBRANCH  15  18
ENDBRANCH   3  15
TORSDOF 4
ENDMDL
