MODEL 1
REMARK VINA RESULT:    -3.497      0.000      0.000
REMARK INTER + INTRA:          -4.445
REMARK INTER:                  -4.333
REMARK INTRA:                  -0.112
REMARK UNBOUND:                -0.130
REMARK  Name = 7997
REMARK  5 active torsions:
REMARK  status: ('A' for Active; 'I' for Inactive)
REMARK    1  A    between atoms: O_1  and  C_4
REMARK    2  A    between atoms: O_1  and  C_6
REMARK    3  A    between atoms: C_3  and  C_4
REMARK    4  A    between atoms: C_3  and  C_5
REMARK    5  A    between atoms: C_6  and  C_7
REMARK                            x       y       z     vdW  Elec       q    Type
REMARK                         _______ _______ _______ _____ _____    ______ ____
ROOT
ATOM      1  C   UNL     1       5.860  10.892  -1.099  0.00  0.00    +0.000 C 
ATOM      2  H   UNL     1       5.618  11.678  -1.825  0.00  0.00    +0.000 HD
ATOM      3  H   UNL     1       5.457   9.938  -1.457  0.00  0.00    +0.000 HD
ENDROOT
BRANCH   1   4
ATOM      4  C   UNL     1       7.368  10.789  -0.927  0.00  0.00    +0.000 C 
ATOM      5  H   UNL     1       7.834  10.551  -1.891  0.00  0.00    +0.000 HD
ATOM      6  H   UNL     1       7.772  11.764  -0.630  0.00  0.00    +0.000 HD
BRANCH   4   7
ATOM      7  C   UNL     1       7.749   9.738   0.101  0.00  0.00    +0.000 C 
ATOM      8  H   UNL     1       7.182   9.873   1.027  0.00  0.00    +0.000 HD
ATOM      9  H   UNL     1       7.538   8.736  -0.285  0.00  0.00    +0.000 HD
ATOM     10  H   UNL     1       8.816   9.793   0.339  0.00  0.00    +0.000 HD
ENDBRANCH   4   7
ENDBRANCH   1   4
BRANCH   1  11
ATOM     11  O   UNL     1       5.275  11.212   0.156  0.00  0.00    +0.000 OA
BRANCH  11  13
ATOM     12  O   UNL     1       3.225  11.647   1.127  0.00  0.00    +0.000 OA
ATOM     13  C   UNL     1       3.918  11.387   0.153  0.00  0.00    +0.000 C 
BRANCH  13  14
ATOM     14  C   UNL     1       3.385  11.215  -1.236  0.00  0.00    +0.000 C 
ATOM     15  H   UNL     1       3.482  10.170  -1.544  0.00  0.00    +0.000 HD
ATOM     16  H   UNL     1       3.922  11.871  -1.924  0.00  0.00    +0.000 HD
ATOM     17  H   UNL     1       2.324  11.485  -1.254  0.00  0.00    +0.000 HD
ENDBRANCH  13  14
ENDBRANCH  11  13
ENDBRANCH   1  11
TORSDOF 5
ENDMDL
MODEL 2
REMARK VINA RESULT:    -3.469      2.721      3.457
REMARK INTER + INTRA:          -4.410
REMARK INTER:                  -4.244
REMARK INTRA:                  -0.166
REMARK UNBOUND:                -0.130
REMARK  Name = 7997
REMARK  5 active torsions:
REMARK  status: ('A' for Active; 'I' for Inactive)
REMARK    1  A    between atoms: O_1  and  C_4
REMARK    2  A    between atoms: O_1  and  C_6
REMARK    3  A    between atoms: C_3  and  C_4
REMARK    4  A    between atoms: C_3  and  C_5
REMARK    5  A    between atoms: C_6  and  C_7
REMARK                            x       y       z     vdW  Elec       q    Type
REMARK                         _______ _______ _______ _____ _____    ______ ____
ROOT
ATOM      1  C   UNL     1       3.357   9.013   2.261  0.00  0.00    +0.000 C 
ATOM      2  H   UNL     1       3.717   8.528   1.345  0.00  0.00    +0.000 HD
ATOM      3  H   UNL     1       2.393   8.575   2.544  0.00  0.00    +0.000 HD
ENDROOT
BRANCH   1   4
ATOM      4  C   UNL     1       4.365   8.821   3.383  0.00  0.00    +0.000 C 
ATOM      5  H   UNL     1       4.810   9.788   3.649  0.00  0.00    +0.000 HD
ATOM      6  H   UNL     1       3.851   8.468   4.285  0.00  0.00    +0.000 HD
BRANCH   4   7
ATOM      7  C   UNL     1       5.459   7.841   2.998  0.00  0.00    +0.000 C 
ATOM      8  H   UNL     1       5.791   8.008   1.969  0.00  0.00    +0.000 HD
ATOM      9  H   UNL     1       6.325   7.959   3.657  0.00  0.00    +0.000 HD
ATOM     10  H   UNL     1       5.107   6.808   3.082  0.00  0.00    +0.000 HD
ENDBRANCH   4   7
ENDBRANCH   1   4
BRANCH   1  11
ATOM     11  O   UNL     1       3.193  10.405   2.025  0.00  0.00    +0.000 OA
BRANCH  11  13
ATOM     12  O   UNL     1       4.159  12.025   0.691  0.00  0.00    +0.000 OA
ATOM     13  C   UNL     1       3.758  10.884   0.874  0.00  0.00    +0.000 C 
BRANCH  13  14
ATOM     14  C   UNL     1       3.822   9.796  -0.154  0.00  0.00    +0.000 C 
ATOM     15  H   UNL     1       4.434  10.120  -1.000  0.00  0.00    +0.000 HD
ATOM     16  H   UNL     1       2.813   9.538  -0.485  0.00  0.00    +0.000 HD
ATOM     17  H   UNL     1       4.281   8.906   0.288  0.00  0.00    +0.000 HD
ENDBRANCH  13  14
ENDBRANCH  11  13
ENDBRANCH   1  11
TORSDOF 5
ENDMDL
MODEL 3
REMARK VINA RESULT:    -3.419     12.047     12.948
REMARK INTER + INTRA:          -4.349
REMARK INTER:                  -4.240
REMARK INTRA:                  -0.109
REMARK UNBOUND:                -0.130
REMARK  Name = 7997
REMARK  5 active torsions:
REMARK  status: ('A' for Active; 'I' for Inactive)
REMARK    1  A    between atoms: O_1  and  C_4
REMARK    2  A    between atoms: O_1  and  C_6
REMARK    3  A    between atoms: C_3  and  C_4
REMARK    4  A    between atoms: C_3  and  C_5
REMARK    5  A    between atoms: C_6  and  C_7
REMARK                            x       y       z     vdW  Elec       q    Type
REMARK                         _______ _______ _______ _____ _____    ______ ____
ROOT
ATOM      1  C   UNL     1      -2.799   9.450  -9.708  0.00  0.00    +0.000 C 
ATOM      2  H   UNL     1      -3.303  10.270  -9.182  0.00  0.00    +0.000 HD
ATOM      3  H   UNL     1      -3.336   9.239 -10.640  0.00  0.00    +0.000 HD
ENDROOT
BRANCH   1   4
ATOM      4  C   UNL     1      -1.359   9.832 -10.011  0.00  0.00    +0.000 C 
ATOM      5  H   UNL     1      -1.116  10.778  -9.513  0.00  0.00    +0.000 HD
ATOM      6  H   UNL     1      -0.681   9.084  -9.583  0.00  0.00    +0.000 HD
BRANCH   4   7
ATOM      7  C   UNL     1      -1.110   9.958 -11.504  0.00  0.00    +0.000 C 
ATOM      8  H   UNL     1      -0.302  10.668 -11.707  0.00  0.00    +0.000 HD
ATOM      9  H   UNL     1      -0.825   8.990 -11.925  0.00  0.00    +0.000 HD
ATOM     10  H   UNL     1      -2.010  10.304 -12.023  0.00  0.00    +0.000 HD
ENDBRANCH   4   7
ENDBRANCH   1   4
BRANCH   1  11
ATOM     11  O   UNL     1      -2.803   8.290  -8.887  0.00  0.00    +0.000 OA
BRANCH  11  13
ATOM     12  O   UNL     1      -2.544   6.621 -10.464  0.00  0.00    +0.000 OA
ATOM     13  C   UNL     1      -3.131   7.118  -9.513  0.00  0.00    +0.000 C 
BRANCH  13  14
ATOM     14  C   UNL     1      -4.335   6.510  -8.858  0.00  0.00    +0.000 C 
ATOM     15  H   UNL     1      -5.094   6.286  -9.612  0.00  0.00    +0.000 HD
ATOM     16  H   UNL     1      -4.731   7.193  -8.103  0.00  0.00    +0.000 HD
ATOM     17  H   UNL     1      -4.047   5.576  -8.365  0.00  0.00    +0.000 HD
ENDBRANCH  13  14
ENDBRANCH  11  13
ENDBRANCH   1  11
TORSDOF 5
ENDMDL
MODEL 4
REMARK VINA RESULT:    -3.394     12.160     12.975
REMARK INTER + INTRA:          -4.317
REMARK INTER:                  -4.219
REMARK INTRA:                  -0.098
REMARK UNBOUND:                -0.130
REMARK  Name = 7997
REMARK  5 active torsions:
REMARK  status: ('A' for Active; 'I' for Inactive)
REMARK    1  A    between atoms: O_1  and  C_4
REMARK    2  A    between atoms: O_1  and  C_6
REMARK    3  A    between atoms: C_3  and  C_4
REMARK    4  A    between atoms: C_3  and  C_5
REMARK    5  A    between atoms: C_6  and  C_7
REMARK                            x       y       z     vdW  Elec       q    Type
REMARK                         _______ _______ _______ _____ _____    ______ ____
ROOT
ATOM      1  C   UNL     1      -3.060   8.405  -8.658  0.00  0.00    +0.000 C 
ATOM      2  H   UNL     1      -3.961   9.013  -8.801  0.00  0.00    +0.000 HD
ATOM      3  H   UNL     1      -2.896   8.256  -7.584  0.00  0.00    +0.000 HD
ENDROOT
BRANCH   1   4
ATOM      4  C   UNL     1      -3.222   7.061  -9.351  0.00  0.00    +0.000 C 
ATOM      5  H   UNL     1      -3.129   7.192 -10.436  0.00  0.00    +0.000 HD
ATOM      6  H   UNL     1      -2.403   6.394  -9.057  0.00  0.00    +0.000 HD
BRANCH   4   7
ATOM      7  C   UNL     1      -4.557   6.414  -9.024  0.00  0.00    +0.000 C 
ATOM      8  H   UNL     1      -4.642   6.211  -7.953  0.00  0.00    +0.000 HD
ATOM      9  H   UNL     1      -5.380   7.075  -9.312  0.00  0.00    +0.000 HD
ATOM     10  H   UNL     1      -4.675   5.469  -9.564  0.00  0.00    +0.000 HD
ENDBRANCH   4   7
ENDBRANCH   1   4
BRANCH   1  11
ATOM     11  O   UNL     1      -1.941   9.079  -9.219  0.00  0.00    +0.000 OA
BRANCH  11  13
ATOM     12  O   UNL     1      -3.300  10.309 -10.627  0.00  0.00    +0.000 OA
ATOM     13  C   UNL     1      -2.205   9.866 -10.307  0.00  0.00    +0.000 C 
BRANCH  13  14
ATOM     14  C   UNL     1      -0.940  10.121 -11.069  0.00  0.00    +0.000 C 
ATOM     15  H   UNL     1      -0.179  10.528 -10.399  0.00  0.00    +0.000 HD
ATOM     16  H   UNL     1      -1.136  10.810 -11.894  0.00  0.00    +0.000 HD
ATOM     17  H   UNL     1      -0.571   9.178 -11.485  0.00  0.00    +0.000 HD
ENDBRANCH  13  14
ENDBRANCH  11  13
ENDBRANCH   1  11
TORSDOF 5
ENDMDL
MODEL 5
REMARK VINA RESULT:    -3.308     13.148     13.693
REMARK INTER + INTRA:          -4.212
REMARK INTER:                  -4.120
REMARK INTRA:                  -0.092
REMARK UNBOUND:                -0.130
REMARK  Name = 7997
REMARK  5 active torsions:
REMARK  status: ('A' for Active; 'I' for Inactive)
REMARK    1  A    between atoms: O_1  and  C_4
REMARK    2  A    between atoms: O_1  and  C_6
REMARK    3  A    between atoms: C_3  and  C_4
REMARK    4  A    between atoms: C_3  and  C_5
REMARK    5  A    between atoms: C_6  and  C_7
REMARK                            x       y       z     vdW  Elec       q    Type
REMARK                         _______ _______ _______ _____ _____    ______ ____
ROOT
ATOM      1  C   UNL     1      -2.188   8.045 -10.729  0.00  0.00    +0.000 C 
ATOM      2  H   UNL     1      -2.934   8.741 -11.132  0.00  0.00    +0.000 HD
ATOM      3  H   UNL     1      -1.726   8.490  -9.841  0.00  0.00    +0.000 HD
ENDROOT
BRANCH   1   4
ATOM      4  C   UNL     1      -2.850   6.725 -10.366  0.00  0.00    +0.000 C 
ATOM      5  H   UNL     1      -3.584   6.456 -11.135  0.00  0.00    +0.000 HD
ATOM      6  H   UNL     1      -2.101   5.924 -10.371  0.00  0.00    +0.000 HD
BRANCH   4   7
ATOM      7  C   UNL     1      -3.528   6.787  -9.009  0.00  0.00    +0.000 C 
ATOM      8  H   UNL     1      -3.197   5.965  -8.367  0.00  0.00    +0.000 HD
ATOM      9  H   UNL     1      -3.287   7.729  -8.506  0.00  0.00    +0.000 HD
ATOM     10  H   UNL     1      -4.616   6.725  -9.111  0.00  0.00    +0.000 HD
ENDBRANCH   4   7
ENDBRANCH   1   4
BRANCH   1  11
ATOM     11  O   UNL     1      -1.189   7.803 -11.711  0.00  0.00    +0.000 OA
BRANCH  11  13
ATOM     12  O   UNL     1       0.152   8.947 -13.204  0.00  0.00    +0.000 OA
ATOM     13  C   UNL     1      -0.568   8.913 -12.216  0.00  0.00    +0.000 C 
BRANCH  13  14
ATOM     14  C   UNL     1      -0.900  10.108 -11.375  0.00  0.00    +0.000 C 
ATOM     15  H   UNL     1      -0.775  11.021 -11.964  0.00  0.00    +0.000 HD
ATOM     16  H   UNL     1      -0.261  10.129 -10.490  0.00  0.00    +0.000 HD
ATOM     17  H   UNL     1      -1.943  10.045 -11.050  0.00  0.00    +0.000 HD
ENDBRANCH  13  14
ENDBRANCH  11  13
ENDBRANCH   1  11
TORSDOF 5
ENDMDL
MODEL 6
REMARK VINA RESULT:    -3.272     29.091     29.758
REMARK INTER + INTRA:          -4.167
REMARK INTER:                  -4.072
REMARK INTRA:                  -0.095
REMARK UNBOUND:                -0.130
REMARK  Name = 7997
REMARK  5 active torsions:
REMARK  status: ('A' for Active; 'I' for Inactive)
REMARK    1  A    between atoms: O_1  and  C_4
REMARK    2  A    between atoms: O_1  and  C_6
REMARK    3  A    between atoms: C_3  and  C_4
REMARK    4  A    between atoms: C_3  and  C_5
REMARK    5  A    between atoms: C_6  and  C_7
REMARK                            x       y       z     vdW  Elec       q    Type
REMARK                         _______ _______ _______ _____ _____    ______ ____
ROOT
ATOM      1  C   UNL     1     -20.687  -2.902   5.172  0.00  0.00    +0.000 C 
ATOM      2  H   UNL     1     -21.710  -3.072   4.815  0.00  0.00    +0.000 HD
ATOM      3  H   UNL     1     -20.075  -2.534   4.341  0.00  0.00    +0.000 HD
ENDROOT
BRANCH   1   4
ATOM      4  C   UNL     1     -20.693  -1.888   6.305  0.00  0.00    +0.000 C 
ATOM      5  H   UNL     1     -21.647  -1.942   6.844  0.00  0.00    +0.000 HD
ATOM      6  H   UNL     1     -19.919  -2.148   7.036  0.00  0.00    +0.000 HD
BRANCH   4   7
ATOM      7  C   UNL     1     -20.468  -0.474   5.799  0.00  0.00    +0.000 C 
ATOM      8  H   UNL     1     -20.274   0.213   6.628  0.00  0.00    +0.000 HD
ATOM      9  H   UNL     1     -19.608  -0.444   5.123  0.00  0.00    +0.000 HD
ATOM     10  H   UNL     1     -21.344  -0.111   5.251  0.00  0.00    +0.000 HD
ENDBRANCH   4   7
ENDBRANCH   1   4
BRANCH   1  11
ATOM     11  O   UNL     1     -20.146  -4.125   5.654  0.00  0.00    +0.000 OA
BRANCH  11  13
ATOM     12  O   UNL     1     -18.462  -5.584   5.042  0.00  0.00    +0.000 OA
ATOM     13  C   UNL     1     -19.385  -4.831   4.762  0.00  0.00    +0.000 C 
BRANCH  13  14
ATOM     14  C   UNL     1     -19.848  -4.554   3.364  0.00  0.00    +0.000 C 
ATOM     15  H   UNL     1     -19.615  -3.521   3.094  0.00  0.00    +0.000 HD
ATOM     16  H   UNL     1     -20.922  -4.739   3.286  0.00  0.00    +0.000 HD
ATOM     17  H   UNL     1     -19.328  -5.222   2.670  0.00  0.00    +0.000 HD
ENDBRANCH  13  14
ENDBRANCH  11  13
ENDBRANCH   1  11
TORSDOF 5
ENDMDL
MODEL 7
REMARK VINA RESULT:    -3.177     12.650     13.749
REMARK INTER + INTRA:          -4.050
REMARK INTER:                  -3.880
REMARK INTRA:                  -0.170
REMARK UNBOUND:                -0.130
REMARK  Name = 7997
REMARK  5 active torsions:
REMARK  status: ('A' for Active; 'I' for Inactive)
REMARK    1  A    between atoms: O_1  and  C_4
REMARK    2  A    between atoms: O_1  and  C_6
REMARK    3  A    between atoms: C_3  and  C_4
REMARK    4  A    between atoms: C_3  and  C_5
REMARK    5  A    between atoms: C_6  and  C_7
REMARK                            x       y       z     vdW  Elec       q    Type
REMARK                         _______ _______ _______ _____ _____    ______ ____
ROOT
ATOM      1  C   UNL     1      -3.363   6.846 -11.551  0.00  0.00    +0.000 C 
ATOM      2  H   UNL     1      -3.925   7.787 -11.503  0.00  0.00    +0.000 HD
ATOM      3  H   UNL     1      -4.056   6.025 -11.769  0.00  0.00    +0.000 HD
ENDROOT
BRANCH   1   4
ATOM      4  C   UNL     1      -2.299   6.930 -12.634  0.00  0.00    +0.000 C 
ATOM      5  H   UNL     1      -2.121   5.933 -13.055  0.00  0.00    +0.000 HD
ATOM      6  H   UNL     1      -2.666   7.546 -13.464  0.00  0.00    +0.000 HD
BRANCH   4   7
ATOM      7  C   UNL     1      -0.997   7.503 -12.104  0.00  0.00    +0.000 C 
ATOM      8  H   UNL     1      -0.734   7.054 -11.142  0.00  0.00    +0.000 HD
ATOM      9  H   UNL     1      -0.181   7.306 -12.806  0.00  0.00    +0.000 HD
ATOM     10  H   UNL     1      -1.073   8.587 -11.968  0.00  0.00    +0.000 HD
ENDBRANCH   4   7
ENDBRANCH   1   4
BRANCH   1  11
ATOM     11  O   UNL     1      -2.729   6.611 -10.301  0.00  0.00    +0.000 OA
BRANCH  11  13
ATOM     12  O   UNL     1      -4.270   6.460  -8.587  0.00  0.00    +0.000 OA
ATOM     13  C   UNL     1      -3.400   7.064  -9.198  0.00  0.00    +0.000 C 
BRANCH  13  14
ATOM     14  C   UNL     1      -2.909   8.431  -8.830  0.00  0.00    +0.000 C 
ATOM     15  H   UNL     1      -3.518   9.190  -9.329  0.00  0.00    +0.000 HD
ATOM     16  H   UNL     1      -1.858   8.536  -9.108  0.00  0.00    +0.000 HD
ATOM     17  H   UNL     1      -2.999   8.570  -7.748  0.00  0.00    +0.000 HD
ENDBRANCH  13  14
ENDBRANCH  11  13
ENDBRANCH   1  11
TORSDOF 5
ENDMDL
MODEL 8
REMARK VINA RESULT:    -3.153     30.641     31.426
REMARK INTER + INTRA:          -4.020
REMARK INTER:                  -3.872
REMARK INTRA:                  -0.148
REMARK UNBOUND:                -0.130
REMARK  Name = 7997
REMARK  5 active torsions:
REMARK  status: ('A' for Active; 'I' for Inactive)
REMARK    1  A    between atoms: O_1  and  C_4
REMARK    2  A    between atoms: O_1  and  C_6
REMARK    3  A    between atoms: C_3  and  C_4
REMARK    4  A    between atoms: C_3  and  C_5
REMARK    5  A    between atoms: C_6  and  C_7
REMARK                            x       y       z     vdW  Elec       q    Type
REMARK                         _______ _______ _______ _____ _____    ______ ____
ROOT
ATOM      1  C   UNL     1     -10.408 -12.042  16.052  0.00  0.00    +0.000 C 
ATOM      2  H   UNL     1      -9.364 -12.378  16.023  0.00  0.00    +0.000 HD
ATOM      3  H   UNL     1     -11.032 -12.768  15.517  0.00  0.00    +0.000 HD
ENDROOT
BRANCH   1   4
ATOM      4  C   UNL     1     -10.876 -11.916  17.493  0.00  0.00    +0.000 C 
ATOM      5  H   UNL     1     -11.038 -10.859  17.737  0.00  0.00    +0.000 HD
ATOM      6  H   UNL     1     -11.850 -12.404  17.608  0.00  0.00    +0.000 HD
BRANCH   4   7
ATOM      7  C   UNL     1      -9.879 -12.520  18.466  0.00  0.00    +0.000 C 
ATOM      8  H   UNL     1      -9.288 -11.740  18.956  0.00  0.00    +0.000 HD
ATOM      9  H   UNL     1     -10.401 -13.089  19.241  0.00  0.00    +0.000 HD
ATOM     10  H   UNL     1      -9.191 -13.199  17.951  0.00  0.00    +0.000 HD
ENDBRANCH   4   7
ENDBRANCH   1   4
BRANCH   1  11
ATOM     11  O   UNL     1     -10.512 -10.773  15.422  0.00  0.00    +0.000 OA
BRANCH  11  13
ATOM     12  O   UNL     1      -9.188  -9.168  14.417  0.00  0.00    +0.000 OA
ATOM     13  C   UNL     1      -9.370 -10.305  14.832  0.00  0.00    +0.000 C 
BRANCH  13  14
ATOM     14  C   UNL     1      -8.347 -11.398  14.763  0.00  0.00    +0.000 C 
ATOM     15  H   UNL     1      -8.589 -12.177  15.490  0.00  0.00    +0.000 HD
ATOM     16  H   UNL     1      -7.353 -10.989  14.953  0.00  0.00    +0.000 HD
ATOM     17  H   UNL     1      -8.356 -11.841  13.762  0.00  0.00    +0.000 HD
ENDBRANCH  13  14
ENDBRANCH  11  13
ENDBRANCH   1  11
TORSDOF 5
ENDMDL
MODEL 9
REMARK VINA RESULT:    -3.152     12.281     13.656
REMARK INTER + INTRA:          -4.019
REMARK INTER:                  -3.819
REMARK INTRA:                  -0.200
REMARK UNBOUND:                -0.130
REMARK  Name = 7997
REMARK  5 active torsions:
REMARK  status: ('A' for Active; 'I' for Inactive)
REMARK    1  A    between atoms: O_1  and  C_4
REMARK    2  A    between atoms: O_1  and  C_6
REMARK    3  A    between atoms: C_3  and  C_4
REMARK    4  A    between atoms: C_3  and  C_5
REMARK    5  A    between atoms: C_6  and  C_7
REMARK                            x       y       z     vdW  Elec       q    Type
REMARK                         _______ _______ _______ _____ _____    ______ ____
ROOT
ATOM      1  C   UNL     1      -2.566   8.253 -11.955  0.00  0.00    +0.000 C 
ATOM      2  H   UNL     1      -1.473   8.344 -11.989  0.00  0.00    +0.000 HD
ATOM      3  H   UNL     1      -2.973   8.449 -12.954  0.00  0.00    +0.000 HD
ENDROOT
BRANCH   1   4
ATOM      4  C   UNL     1      -2.960   6.858 -11.497  0.00  0.00    +0.000 C 
ATOM      5  H   UNL     1      -2.751   6.135 -12.295  0.00  0.00    +0.000 HD
ATOM      6  H   UNL     1      -2.333   6.559 -10.648  0.00  0.00    +0.000 HD
BRANCH   4   7
ATOM      7  C   UNL     1      -4.425   6.783 -11.106  0.00  0.00    +0.000 C 
ATOM      8  H   UNL     1      -5.047   6.523 -11.968  0.00  0.00    +0.000 HD
ATOM      9  H   UNL     1      -4.575   6.020 -10.337  0.00  0.00    +0.000 HD
ATOM     10  H   UNL     1      -4.773   7.741 -10.708  0.00  0.00    +0.000 HD
ENDBRANCH   4   7
ENDBRANCH   1   4
BRANCH   1  11
ATOM     11  O   UNL     1      -3.090   9.203 -11.037  0.00  0.00    +0.000 OA
BRANCH  11  13
ATOM     12  O   UNL     1      -1.106  10.098 -10.260  0.00  0.00    +0.000 OA
ATOM     13  C   UNL     1      -2.223   9.637 -10.070  0.00  0.00    +0.000 C 
BRANCH  13  14
ATOM     14  C   UNL     1      -2.845   9.471  -8.717  0.00  0.00    +0.000 C 
ATOM     15  H   UNL     1      -3.894   9.774  -8.752  0.00  0.00    +0.000 HD
ATOM     16  H   UNL     1      -2.297  10.065  -7.982  0.00  0.00    +0.000 HD
ATOM     17  H   UNL     1      -2.795   8.419  -8.422  0.00  0.00    +0.000 HD
ENDBRANCH  13  14
ENDBRANCH  11  13
ENDBRANCH   1  11
TORSDOF 5
ENDMDL
MODEL 10
REMARK VINA RESULT:    -3.001     12.417     13.343
REMARK INTER + INTRA:          -3.833
REMARK INTER:                  -3.703
REMARK INTRA:                  -0.130
REMARK UNBOUND:                -0.130
REMARK  Name = 7997
REMARK  5 active torsions:
REMARK  status: ('A' for Active; 'I' for Inactive)
REMARK    1  A    between atoms: O_1  and  C_4
REMARK    2  A    between atoms: O_1  and  C_6
REMARK    3  A    between atoms: C_3  and  C_4
REMARK    4  A    between atoms: C_3  and  C_5
REMARK    5  A    between atoms: C_6  and  C_7
REMARK                            x       y       z     vdW  Elec       q    Type
REMARK                         _______ _______ _______ _____ _____    ______ ____
ROOT
ATOM      1  C   UNL     1      -2.577   9.573 -10.659  0.00  0.00    +0.000 C 
ATOM      2  H   UNL     1      -3.158   8.775 -11.139  0.00  0.00    +0.000 HD
ATOM      3  H   UNL     1      -3.047  10.538 -10.876  0.00  0.00    +0.000 HD
ENDROOT
BRANCH   1   4
ATOM      4  C   UNL     1      -2.525   9.346  -9.156  0.00  0.00    +0.000 C 
ATOM      5  H   UNL     1      -1.486   9.406  -8.809  0.00  0.00    +0.000 HD
ATOM      6  H   UNL     1      -3.061  10.154  -8.643  0.00  0.00    +0.000 HD
BRANCH   4   7
ATOM      7  C   UNL     1      -3.119   8.004  -8.765  0.00  0.00    +0.000 C 
ATOM      8  H   UNL     1      -4.131   7.892  -9.167  0.00  0.00    +0.000 HD
ATOM      9  H   UNL     1      -2.505   7.188  -9.157  0.00  0.00    +0.000 HD
ATOM     10  H   UNL     1      -3.169   7.900  -7.677  0.00  0.00    +0.000 HD
ENDBRANCH   4   7
ENDBRANCH   1   4
BRANCH   1  11
ATOM     11  O   UNL     1      -1.251   9.565 -11.170  0.00  0.00    +0.000 OA
BRANCH  11  13
ATOM     12  O   UNL     1      -1.208   7.322 -11.722  0.00  0.00    +0.000 OA
ATOM     13  C   UNL     1      -0.919   8.488 -11.948  0.00  0.00    +0.000 C 
BRANCH  13  14
ATOM     14  C   UNL     1      -0.137   8.945 -13.142  0.00  0.00    +0.000 C 
ATOM     15  H   UNL     1      -0.789   8.985 -14.018  0.00  0.00    +0.000 HD
ATOM     16  H   UNL     1       0.702   8.268 -13.317  0.00  0.00    +0.000 HD
ATOM     17  H   UNL     1       0.258   9.948 -12.955  0.00  0.00    +0.000 HD
ENDBRANCH  13  14
ENDBRANCH  11  13
ENDBRANCH   1  11
TORSDOF 5
ENDMDL
