MODEL 1
REMARK VINA RESULT:    -3.342      0.000      0.000
REMARK INTER + INTRA:          -3.733
REMARK INTER:                  -3.733
REMARK INTRA:                   0.000
REMARK UNBOUND:                 0.000
REMARK  Name = 1032
REMARK  3 active torsions:
REMARK  status: ('A' for Active; 'I' for Inactive)
REMARK    1  A    between atoms: O_1  and  C_5
REMARK    2  A    between atoms: C_3  and  C_4
REMARK    3  A    between atoms: C_3  and  C_5
REMARK                            x       y       z     vdW  Elec       q    Type
REMARK                         _______ _______ _______ _____ _____    ______ ____
ROOT
ATOM      1  C   UNL     1       4.174  10.975  -0.924  0.00  0.00    +0.000 C 
ATOM      2  H   UNL     1       4.268   9.914  -0.670  0.00  0.00    +0.000 HD
ATOM      3  H   UNL     1       5.091  11.308  -1.422  0.00  0.00    +0.000 HD
ENDROOT
BRANCH   1   4
ATOM      4  C   UNL     1       2.995  11.168  -1.859  0.00  0.00    +0.000 C 
ATOM      5  H   UNL     1       2.126  11.537  -1.306  0.00  0.00    +0.000 HD
ATOM      6  H   UNL     1       3.231  11.890  -2.648  0.00  0.00    +0.000 HD
ATOM      7  H   UNL     1       2.717  10.225  -2.343  0.00  0.00    +0.000 HD
ENDBRANCH   1   4
BRANCH   1   9
ATOM      8  O   UNL     1       3.103  11.645   1.160  0.00  0.00    +0.000 OA
ATOM      9  C   UNL     1       4.015  11.758   0.356  0.00  0.00    +0.000 C 
BRANCH   9  10
ATOM     10  O   UNL     1       5.047  12.627   0.501  0.00  0.00    +0.000 OA
ATOM     11  H   UNL     1       5.887  12.166   0.711  0.00  0.00    +0.000 HD
ENDBRANCH   9  10
ENDBRANCH   1   9
TORSDOF 3
ENDMDL
MODEL 2
REMARK VINA RESULT:    -3.224     22.436     23.255
REMARK INTER + INTRA:          -3.601
REMARK INTER:                  -3.601
REMARK INTRA:                   0.000
REMARK UNBOUND:                 0.000
REMARK  Name = 1032
REMARK  3 active torsions:
REMARK  status: ('A' for Active; 'I' for Inactive)
REMARK    1  A    between atoms: O_1  and  C_5
REMARK    2  A    between atoms: C_3  and  C_4
REMARK    3  A    between atoms: C_3  and  C_5
REMARK                            x       y       z     vdW  Elec       q    Type
REMARK                         _______ _______ _______ _____ _____    ______ ____
ROOT
ATOM      1  C   UNL     1      -9.713   8.044  19.309  0.00  0.00    +0.000 C 
ATOM      2  H   UNL     1      -8.833   7.695  19.859  0.00  0.00    +0.000 HD
ATOM      3  H   UNL     1     -10.333   7.182  19.038  0.00  0.00    +0.000 HD
ENDROOT
BRANCH   1   4
ATOM      4  C   UNL     1     -10.518   8.983  20.189  0.00  0.00    +0.000 C 
ATOM      5  H   UNL     1     -10.765   9.899  19.643  0.00  0.00    +0.000 HD
ATOM      6  H   UNL     1     -11.453   8.515  20.514  0.00  0.00    +0.000 HD
ATOM      7  H   UNL     1      -9.955   9.262  21.087  0.00  0.00    +0.000 HD
ENDBRANCH   1   4
BRANCH   1   9
ATOM      8  O   UNL     1      -9.892   9.505  17.367  0.00  0.00    +0.000 OA
ATOM      9  C   UNL     1      -9.248   8.716  18.042  0.00  0.00    +0.000 C 
BRANCH   9  10
ATOM     10  O   UNL     1      -7.985   8.320  17.742  0.00  0.00    +0.000 OA
ATOM     11  H   UNL     1      -7.590   7.782  18.462  0.00  0.00    +0.000 HD
ENDBRANCH   9  10
ENDBRANCH   1   9
TORSDOF 3
ENDMDL
MODEL 3
REMARK VINA RESULT:    -3.161     28.512     28.974
REMARK INTER + INTRA:          -3.531
REMARK INTER:                  -3.531
REMARK INTRA:                   0.000
REMARK UNBOUND:                 0.000
REMARK  Name = 1032
REMARK  3 active torsions:
REMARK  status: ('A' for Active; 'I' for Inactive)
REMARK    1  A    between atoms: O_1  and  C_5
REMARK    2  A    between atoms: C_3  and  C_4
REMARK    3  A    between atoms: C_3  and  C_5
REMARK                            x       y       z     vdW  Elec       q    Type
REMARK                         _______ _______ _______ _____ _____    ______ ____
ROOT
ATOM      1  C   UNL     1     -20.388  -4.525   4.632  0.00  0.00    +0.000 C 
ATOM      2  H   UNL     1     -21.098  -5.344   4.786  0.00  0.00    +0.000 HD
ATOM      3  H   UNL     1     -20.645  -3.995   3.709  0.00  0.00    +0.000 HD
ENDROOT
BRANCH   1   4
ATOM      4  C   UNL     1     -20.469  -3.562   5.804  0.00  0.00    +0.000 C 
ATOM      5  H   UNL     1     -20.287  -2.537   5.467  0.00  0.00    +0.000 HD
ATOM      6  H   UNL     1     -21.456  -3.598   6.276  0.00  0.00    +0.000 HD
ATOM      7  H   UNL     1     -19.724  -3.809   6.568  0.00  0.00    +0.000 HD
ENDBRANCH   1   4
BRANCH   1   9
ATOM      8  O   UNL     1     -18.346  -5.137   3.451  0.00  0.00    +0.000 OA
ATOM      9  C   UNL     1     -19.008  -5.112   4.478  0.00  0.00    +0.000 C 
BRANCH   9  10
ATOM     10  O   UNL     1     -18.584  -5.624   5.662  0.00  0.00    +0.000 OA
ATOM     11  H   UNL     1     -19.035  -5.200   6.425  0.00  0.00    +0.000 HD
ENDBRANCH   9  10
ENDBRANCH   1   9
TORSDOF 3
ENDMDL
MODEL 4
REMARK VINA RESULT:    -3.092     28.412     28.931
REMARK INTER + INTRA:          -3.453
REMARK INTER:                  -3.453
REMARK INTRA:                   0.000
REMARK UNBOUND:                 0.000
REMARK  Name = 1032
REMARK  3 active torsions:
REMARK  status: ('A' for Active; 'I' for Inactive)
REMARK    1  A    between atoms: O_1  and  C_5
REMARK    2  A    between atoms: C_3  and  C_4
REMARK    3  A    between atoms: C_3  and  C_5
REMARK                            x       y       z     vdW  Elec       q    Type
REMARK                         _______ _______ _______ _____ _____    ______ ____
ROOT
ATOM      1  C   UNL     1     -20.053  -0.854   7.021  0.00  0.00    +0.000 C 
ATOM      2  H   UNL     1     -19.487  -1.780   6.874  0.00  0.00    +0.000 HD
ATOM      3  H   UNL     1     -19.406  -0.109   7.496  0.00  0.00    +0.000 HD
ENDROOT
BRANCH   1   4
ATOM      4  C   UNL     1     -20.520  -0.330   5.675  0.00  0.00    +0.000 C 
ATOM      5  H   UNL     1     -20.997  -1.130   5.099  0.00  0.00    +0.000 HD
ATOM      6  H   UNL     1     -21.244   0.482   5.797  0.00  0.00    +0.000 HD
ATOM      7  H   UNL     1     -19.679   0.058   5.090  0.00  0.00    +0.000 HD
ENDBRANCH   1   4
BRANCH   1   9
ATOM      8  O   UNL     1     -21.711  -2.237   8.151  0.00  0.00    +0.000 OA
ATOM      9  C   UNL     1     -21.208  -1.143   7.946  0.00  0.00    +0.000 C 
BRANCH   9  10
ATOM     10  O   UNL     1     -21.627   0.004   8.540  0.00  0.00    +0.000 OA
ATOM     11  H   UNL     1     -22.512  -0.100   8.951  0.00  0.00    +0.000 HD
ENDBRANCH   9  10
ENDBRANCH   1   9
TORSDOF 3
ENDMDL
MODEL 5
REMARK VINA RESULT:    -3.003      1.894      2.128
REMARK INTER + INTRA:          -3.354
REMARK INTER:                  -3.354
REMARK INTRA:                   0.000
REMARK UNBOUND:                 0.000
REMARK  Name = 1032
REMARK  3 active torsions:
REMARK  status: ('A' for Active; 'I' for Inactive)
REMARK    1  A    between atoms: O_1  and  C_5
REMARK    2  A    between atoms: C_3  and  C_4
REMARK    3  A    between atoms: C_3  and  C_5
REMARK                            x       y       z     vdW  Elec       q    Type
REMARK                         _______ _______ _______ _____ _____    ______ ____
ROOT
ATOM      1  C   UNL     1       3.529  11.487   0.249  0.00  0.00    +0.000 C 
ATOM      2  H   UNL     1       4.453  12.029   0.476  0.00  0.00    +0.000 HD
ATOM      3  H   UNL     1       2.671  12.092   0.562  0.00  0.00    +0.000 HD
ENDROOT
BRANCH   1   4
ATOM      4  C   UNL     1       3.447  11.234  -1.246  0.00  0.00    +0.000 C 
ATOM      5  H   UNL     1       3.775  10.216  -1.478  0.00  0.00    +0.000 HD
ATOM      6  H   UNL     1       2.422  11.355  -1.610  0.00  0.00    +0.000 HD
ATOM      7  H   UNL     1       4.083  11.933  -1.799  0.00  0.00    +0.000 HD
ENDBRANCH   1   4
BRANCH   1   9
ATOM      8  O   UNL     1       3.218  10.084   2.218  0.00  0.00    +0.000 OA
ATOM      9  C   UNL     1       3.524  10.204   1.041  0.00  0.00    +0.000 C 
BRANCH   9  10
ATOM     10  O   UNL     1       3.913   9.169   0.253  0.00  0.00    +0.000 OA
ATOM     11  H   UNL     1       4.201   8.395   0.782  0.00  0.00    +0.000 HD
ENDBRANCH   9  10
ENDBRANCH   1   9
TORSDOF 3
ENDMDL
MODEL 6
REMARK VINA RESULT:    -2.969     29.980     30.438
REMARK INTER + INTRA:          -3.316
REMARK INTER:                  -3.316
REMARK INTRA:                   0.000
REMARK UNBOUND:                 0.000
REMARK  Name = 1032
REMARK  3 active torsions:
REMARK  status: ('A' for Active; 'I' for Inactive)
REMARK    1  A    between atoms: O_1  and  C_5
REMARK    2  A    between atoms: C_3  and  C_4
REMARK    3  A    between atoms: C_3  and  C_5
REMARK                            x       y       z     vdW  Elec       q    Type
REMARK                         _______ _______ _______ _____ _____    ______ ____
ROOT
ATOM      1  C   UNL     1      -9.431 -11.966  15.697  0.00  0.00    +0.000 C 
ATOM      2  H   UNL     1      -9.120 -12.517  16.590  0.00  0.00    +0.000 HD
ATOM      3  H   UNL     1      -9.838 -12.670  14.963  0.00  0.00    +0.000 HD
ENDROOT
BRANCH   1   4
ATOM      4  C   UNL     1     -10.501 -10.957  16.074  0.00  0.00    +0.000 C 
ATOM      5  H   UNL     1     -10.208 -10.410  16.975  0.00  0.00    +0.000 HD
ATOM      6  H   UNL     1     -10.661 -10.232  15.269  0.00  0.00    +0.000 HD
ATOM      7  H   UNL     1     -11.457 -11.453  16.271  0.00  0.00    +0.000 HD
ENDBRANCH   1   4
BRANCH   1   9
ATOM      8  O   UNL     1      -7.824 -11.419  13.947  0.00  0.00    +0.000 OA
ATOM      9  C   UNL     1      -8.215 -11.303  15.099  0.00  0.00    +0.000 C 
BRANCH   9  10
ATOM     10  O   UNL     1      -7.595 -10.539  16.034  0.00  0.00    +0.000 OA
ATOM     11  H   UNL     1      -6.726 -10.209  15.718  0.00  0.00    +0.000 HD
ENDBRANCH   9  10
ENDBRANCH   1   9
TORSDOF 3
ENDMDL
MODEL 7
REMARK VINA RESULT:    -2.959     22.393     22.728
REMARK INTER + INTRA:          -3.305
REMARK INTER:                  -3.305
REMARK INTRA:                   0.000
REMARK UNBOUND:                 0.000
REMARK  Name = 1032
REMARK  3 active torsions:
REMARK  status: ('A' for Active; 'I' for Inactive)
REMARK    1  A    between atoms: O_1  and  C_5
REMARK    2  A    between atoms: C_3  and  C_4
REMARK    3  A    between atoms: C_3  and  C_5
REMARK                            x       y       z     vdW  Elec       q    Type
REMARK                         _______ _______ _______ _____ _____    ______ ____
ROOT
ATOM      1  C   UNL     1     -12.968  -1.958  -2.523  0.00  0.00    +0.000 C 
ATOM      2  H   UNL     1     -11.881  -1.954  -2.387  0.00  0.00    +0.000 HD
ATOM      3  H   UNL     1     -13.381  -1.015  -2.148  0.00  0.00    +0.000 HD
ENDROOT
BRANCH   1   4
ATOM      4  C   UNL     1     -13.291  -2.097  -4.000  0.00  0.00    +0.000 C 
ATOM      5  H   UNL     1     -12.512  -2.675  -4.507  0.00  0.00    +0.000 HD
ATOM      6  H   UNL     1     -14.248  -2.608  -4.148  0.00  0.00    +0.000 HD
ATOM      7  H   UNL     1     -13.358  -1.116  -4.482  0.00  0.00    +0.000 HD
ENDBRANCH   1   4
BRANCH   1   9
ATOM      8  O   UNL     1     -14.464  -3.005  -0.909  0.00  0.00    +0.000 OA
ATOM      9  C   UNL     1     -13.545  -3.089  -1.710  0.00  0.00    +0.000 C 
BRANCH   9  10
ATOM     10  O   UNL     1     -12.893  -4.246  -1.992  0.00  0.00    +0.000 OA
ATOM     11  H   UNL     1     -12.423  -4.199  -2.852  0.00  0.00    +0.000 HD
ENDBRANCH   9  10
ENDBRANCH   1   9
TORSDOF 3
ENDMDL
MODEL 8
REMARK VINA RESULT:    -2.958      1.534      2.148
REMARK INTER + INTRA:          -3.304
REMARK INTER:                  -3.304
REMARK INTRA:                   0.000
REMARK UNBOUND:                 0.000
REMARK  Name = 1032
REMARK  3 active torsions:
REMARK  status: ('A' for Active; 'I' for Inactive)
REMARK    1  A    between atoms: O_1  and  C_5
REMARK    2  A    between atoms: C_3  and  C_4
REMARK    3  A    between atoms: C_3  and  C_5
REMARK                            x       y       z     vdW  Elec       q    Type
REMARK                         _______ _______ _______ _____ _____    ______ ____
ROOT
ATOM      1  C   UNL     1       3.629  10.495   0.963  0.00  0.00    +0.000 C 
ATOM      2  H   UNL     1       2.563  10.541   1.207  0.00  0.00    +0.000 HD
ATOM      3  H   UNL     1       4.211  10.477   1.891  0.00  0.00    +0.000 HD
ENDROOT
BRANCH   1   4
ATOM      4  C   UNL     1       3.910   9.232   0.169  0.00  0.00    +0.000 C 
ATOM      5  H   UNL     1       4.221   9.483  -0.850  0.00  0.00    +0.000 HD
ATOM      6  H   UNL     1       4.708   8.643   0.634  0.00  0.00    +0.000 HD
ATOM      7  H   UNL     1       3.019   8.598   0.109  0.00  0.00    +0.000 HD
ENDBRANCH   1   4
BRANCH   1   9
ATOM      8  O   UNL     1       4.846  12.557   0.508  0.00  0.00    +0.000 OA
ATOM      9  C   UNL     1       3.995  11.739   0.193  0.00  0.00    +0.000 C 
BRANCH   9  10
ATOM     10  O   UNL     1       3.235  11.833  -0.928  0.00  0.00    +0.000 OA
ATOM     11  H   UNL     1       3.500  11.175  -1.605  0.00  0.00    +0.000 HD
ENDBRANCH   9  10
ENDBRANCH   1   9
TORSDOF 3
ENDMDL
MODEL 9
REMARK VINA RESULT:    -2.949     29.510     29.974
REMARK INTER + INTRA:          -3.294
REMARK INTER:                  -3.294
REMARK INTRA:                   0.000
REMARK UNBOUND:                 0.000
REMARK  Name = 1032
REMARK  3 active torsions:
REMARK  status: ('A' for Active; 'I' for Inactive)
REMARK    1  A    between atoms: O_1  and  C_5
REMARK    2  A    between atoms: C_3  and  C_4
REMARK    3  A    between atoms: C_3  and  C_5
REMARK                            x       y       z     vdW  Elec       q    Type
REMARK                         _______ _______ _______ _____ _____    ______ ____
ROOT
ATOM      1  C   UNL     1      -8.999 -11.277  15.629  0.00  0.00    +0.000 C 
ATOM      2  H   UNL     1      -9.643 -12.144  15.811  0.00  0.00    +0.000 HD
ATOM      3  H   UNL     1      -8.482 -11.013  16.558  0.00  0.00    +0.000 HD
ENDROOT
BRANCH   1   4
ATOM      4  C   UNL     1      -7.974 -11.624  14.564  0.00  0.00    +0.000 C 
ATOM      5  H   UNL     1      -7.719 -10.736  13.978  0.00  0.00    +0.000 HD
ATOM      6  H   UNL     1      -7.055 -12.013  15.014  0.00  0.00    +0.000 HD
ATOM      7  H   UNL     1      -8.361 -12.387  13.880  0.00  0.00    +0.000 HD
ENDBRANCH   1   4
BRANCH   1   9
ATOM      8  O   UNL     1     -11.090 -10.088  15.237  0.00  0.00    +0.000 OA
ATOM      9  C   UNL     1      -9.869 -10.115  15.220  0.00  0.00    +0.000 C 
BRANCH   9  10
ATOM     10  O   UNL     1      -9.095  -9.074  14.819  0.00  0.00    +0.000 OA
ATOM     11  H   UNL     1      -8.319  -8.948  15.406  0.00  0.00    +0.000 HD
ENDBRANCH   9  10
ENDBRANCH   1   9
TORSDOF 3
ENDMDL
MODEL 10
REMARK VINA RESULT:    -2.894      2.190      2.988
REMARK INTER + INTRA:          -3.232
REMARK INTER:                  -3.232
REMARK INTRA:                   0.000
REMARK UNBOUND:                 0.000
REMARK  Name = 1032
REMARK  3 active torsions:
REMARK  status: ('A' for Active; 'I' for Inactive)
REMARK    1  A    between atoms: O_1  and  C_5
REMARK    2  A    between atoms: C_3  and  C_4
REMARK    3  A    between atoms: C_3  and  C_5
REMARK                            x       y       z     vdW  Elec       q    Type
REMARK                         _______ _______ _______ _____ _____    ______ ____
ROOT
ATOM      1  C   UNL     1       4.451   9.516   0.482  0.00  0.00    +0.000 C 
ATOM      2  H   UNL     1       5.036  10.125  -0.215  0.00  0.00    +0.000 HD
ATOM      3  H   UNL     1       3.788   8.855  -0.087  0.00  0.00    +0.000 HD
ENDROOT
BRANCH   1   4
ATOM      4  C   UNL     1       5.389   8.678   1.331  0.00  0.00    +0.000 C 
ATOM      5  H   UNL     1       4.953   7.692   1.521  0.00  0.00    +0.000 HD
ATOM      6  H   UNL     1       6.353   8.536   0.831  0.00  0.00    +0.000 HD
ATOM      7  H   UNL     1       5.582   9.159   2.297  0.00  0.00    +0.000 HD
ENDBRANCH   1   4
BRANCH   1   9
ATOM      8  O   UNL     1       3.351  11.608   1.077  0.00  0.00    +0.000 OA
ATOM      9  C   UNL     1       3.600  10.437   1.320  0.00  0.00    +0.000 C 
BRANCH   9  10
ATOM     10  O   UNL     1       3.133   9.776   2.410  0.00  0.00    +0.000 OA
ATOM     11  H   UNL     1       2.163   9.882   2.513  0.00  0.00    +0.000 HD
ENDBRANCH   9  10
ENDBRANCH   1   9
TORSDOF 3
ENDMDL
