MODEL 1
REMARK VINA RESULT:    -6.098      0.000      0.000
REMARK INTER + INTRA:          -6.098
REMARK INTER:                  -6.098
REMARK INTRA:                   0.000
REMARK UNBOUND:                 0.000
REMARK  Name = 7047
REMARK  0 active torsions:
REMARK  status: ('A' for Active; 'I' for Inactive)
REMARK                            x       y       z     vdW  Elec       q    Type
REMARK                         _______ _______ _______ _____ _____    ______ ____
ROOT
ATOM      1  N   UNL     1      -1.091   9.902 -10.997  0.00  0.00    +0.000 NA
ATOM      2  C   UNL     1      -2.057   7.696 -10.929  0.00  0.00    +0.000 A 
ATOM      3  C   UNL     1      -1.833   8.971 -10.369  0.00  0.00    +0.000 A 
ATOM      4  C   UNL     1      -2.837   6.748 -10.246  0.00  0.00    +0.000 A 
ATOM      5  C   UNL     1      -1.481   7.411 -12.174  0.00  0.00    +0.000 A 
ATOM      6  C   UNL     1      -2.405   9.253  -9.132  0.00  0.00    +0.000 A 
ATOM      7  C   UNL     1      -3.398   7.056  -9.009  0.00  0.00    +0.000 A 
ATOM      8  C   UNL     1      -3.182   8.310  -8.452  0.00  0.00    +0.000 A 
ATOM      9  C   UNL     1      -0.716   8.369 -12.824  0.00  0.00    +0.000 A 
ATOM     10  C   UNL     1      -0.552   9.588 -12.198  0.00  0.00    +0.000 A 
ATOM     11  H   UNL     1      -3.013   5.763 -10.673  0.00  0.00    +0.000 HD
ATOM     12  H   UNL     1      -1.626   6.442 -12.646  0.00  0.00    +0.000 HD
ATOM     13  H   UNL     1      -2.251  10.228  -8.674  0.00  0.00    +0.000 HD
ATOM     14  H   UNL     1      -4.000   6.321  -8.484  0.00  0.00    +0.000 HD
ATOM     15  H   UNL     1      -3.615   8.560  -7.488  0.00  0.00    +0.000 HD
ATOM     16  H   UNL     1      -0.263   8.166 -13.787  0.00  0.00    +0.000 HD
ATOM     17  H   UNL     1       0.036  10.375 -12.658  0.00  0.00    +0.000 HD
ENDROOT
TORSDOF 0
ENDMDL
MODEL 2
REMARK VINA RESULT:    -5.866      0.869      3.397
REMARK INTER + INTRA:          -5.866
REMARK INTER:                  -5.866
REMARK INTRA:                   0.000
REMARK UNBOUND:                 0.000
REMARK  Name = 7047
REMARK  0 active torsions:
REMARK  status: ('A' for Active; 'I' for Inactive)
REMARK                            x       y       z     vdW  Elec       q    Type
REMARK                         _______ _______ _______ _____ _____    ______ ____
ROOT
ATOM      1  N   UNL     1      -2.430   9.234  -9.145  0.00  0.00    +0.000 NA
ATOM      2  C   UNL     1      -2.101   7.633 -10.916  0.00  0.00    +0.000 A 
ATOM      3  C   UNL     1      -1.899   8.905 -10.338  0.00  0.00    +0.000 A 
ATOM      4  C   UNL     1      -1.532   7.324 -12.163  0.00  0.00    +0.000 A 
ATOM      5  C   UNL     1      -2.877   6.704 -10.213  0.00  0.00    +0.000 A 
ATOM      6  C   UNL     1      -1.128   9.828 -11.037  0.00  0.00    +0.000 A 
ATOM      7  C   UNL     1      -0.764   8.267 -12.842  0.00  0.00    +0.000 A 
ATOM      8  C   UNL     1      -0.562   9.520 -12.278  0.00  0.00    +0.000 A 
ATOM      9  C   UNL     1      -3.425   7.040  -8.983  0.00  0.00    +0.000 A 
ATOM     10  C   UNL     1      -3.174   8.307  -8.498  0.00  0.00    +0.000 A 
ATOM     11  H   UNL     1      -1.684   6.345 -12.614  0.00  0.00    +0.000 HD
ATOM     12  H   UNL     1      -3.060   5.711 -10.619  0.00  0.00    +0.000 HD
ATOM     13  H   UNL     1      -0.955  10.817 -10.617  0.00  0.00    +0.000 HD
ATOM     14  H   UNL     1      -0.326   8.024 -13.805  0.00  0.00    +0.000 HD
ATOM     15  H   UNL     1       0.035  10.262 -12.799  0.00  0.00    +0.000 HD
ATOM     16  H   UNL     1      -4.028   6.333  -8.426  0.00  0.00    +0.000 HD
ATOM     17  H   UNL     1      -3.576   8.627  -7.542  0.00  0.00    +0.000 HD
ENDROOT
TORSDOF 0
ENDMDL
MODEL 3
REMARK VINA RESULT:    -5.704      1.236      3.973
REMARK INTER + INTRA:          -5.704
REMARK INTER:                  -5.704
REMARK INTRA:                   0.000
REMARK UNBOUND:                 0.000
REMARK  Name = 7047
REMARK  0 active torsions:
REMARK  status: ('A' for Active; 'I' for Inactive)
REMARK                            x       y       z     vdW  Elec       q    Type
REMARK                         _______ _______ _______ _____ _____    ______ ____
ROOT
ATOM      1  N   UNL     1      -2.764   6.717 -10.250  0.00  0.00    +0.000 NA
ATOM      2  C   UNL     1      -1.863   8.949 -10.350  0.00  0.00    +0.000 A 
ATOM      3  C   UNL     1      -2.040   7.656 -10.887  0.00  0.00    +0.000 A 
ATOM      4  C   UNL     1      -1.100   9.906 -11.042  0.00  0.00    +0.000 A 
ATOM      5  C   UNL     1      -2.466   9.242  -9.120  0.00  0.00    +0.000 A 
ATOM      6  C   UNL     1      -1.440   7.366 -12.109  0.00  0.00    +0.000 A 
ATOM      7  C   UNL     1      -0.511   9.589 -12.263  0.00  0.00    +0.000 A 
ATOM      8  C   UNL     1      -0.681   8.318 -12.797  0.00  0.00    +0.000 A 
ATOM      9  C   UNL     1      -3.213   8.275  -8.462  0.00  0.00    +0.000 A 
ATOM     10  C   UNL     1      -3.330   7.039  -9.064  0.00  0.00    +0.000 A 
ATOM     11  H   UNL     1      -0.961  10.904 -10.633  0.00  0.00    +0.000 HD
ATOM     12  H   UNL     1      -2.358  10.225  -8.667  0.00  0.00    +0.000 HD
ATOM     13  H   UNL     1      -1.558   6.378 -12.548  0.00  0.00    +0.000 HD
ATOM     14  H   UNL     1       0.077  10.331 -12.794  0.00  0.00    +0.000 HD
ATOM     15  H   UNL     1      -0.226   8.062 -13.748  0.00  0.00    +0.000 HD
ATOM     16  H   UNL     1      -3.687   8.484  -7.510  0.00  0.00    +0.000 HD
ATOM     17  H   UNL     1      -3.902   6.244  -8.597  0.00  0.00    +0.000 HD
ENDROOT
TORSDOF 0
ENDMDL
MODEL 4
REMARK VINA RESULT:    -5.631     13.219     13.449
REMARK INTER + INTRA:          -5.631
REMARK INTER:                  -5.631
REMARK INTRA:                   0.000
REMARK UNBOUND:                 0.000
REMARK  Name = 7047
REMARK  0 active torsions:
REMARK  status: ('A' for Active; 'I' for Inactive)
REMARK                            x       y       z     vdW  Elec       q    Type
REMARK                         _______ _______ _______ _____ _____    ______ ____
ROOT
ATOM      1  N   UNL     1       6.824   8.600  -0.094  0.00  0.00    +0.000 NA
ATOM      2  C   UNL     1       5.796  10.775  -0.223  0.00  0.00    +0.000 A 
ATOM      3  C   UNL     1       5.803   9.428   0.197  0.00  0.00    +0.000 A 
ATOM      4  C   UNL     1       4.714  11.611   0.099  0.00  0.00    +0.000 A 
ATOM      5  C   UNL     1       6.890  11.242  -0.961  0.00  0.00    +0.000 A 
ATOM      6  C   UNL     1       4.716   8.964   0.931  0.00  0.00    +0.000 A 
ATOM      7  C   UNL     1       3.638  11.122   0.834  0.00  0.00    +0.000 A 
ATOM      8  C   UNL     1       3.639   9.797   1.251  0.00  0.00    +0.000 A 
ATOM      9  C   UNL     1       7.944  10.391  -1.262  0.00  0.00    +0.000 A 
ATOM     10  C   UNL     1       7.863   9.090  -0.809  0.00  0.00    +0.000 A 
ATOM     11  H   UNL     1       4.703  12.651  -0.223  0.00  0.00    +0.000 HD
ATOM     12  H   UNL     1       6.929  12.273  -1.307  0.00  0.00    +0.000 HD
ATOM     13  H   UNL     1       4.692   7.930   1.269  0.00  0.00    +0.000 HD
ATOM     14  H   UNL     1       2.804  11.772   1.080  0.00  0.00    +0.000 HD
ATOM     15  H   UNL     1       2.804   9.406   1.825  0.00  0.00    +0.000 HD
ATOM     16  H   UNL     1       8.798  10.735  -1.833  0.00  0.00    +0.000 HD
ATOM     17  H   UNL     1       8.656   8.378  -1.014  0.00  0.00    +0.000 HD
ENDROOT
TORSDOF 0
ENDMDL
MODEL 5
REMARK VINA RESULT:    -5.567     13.124     13.988
REMARK INTER + INTRA:          -5.567
REMARK INTER:                  -5.567
REMARK INTRA:                   0.000
REMARK UNBOUND:                 0.000
REMARK  Name = 7047
REMARK  0 active torsions:
REMARK  status: ('A' for Active; 'I' for Inactive)
REMARK                            x       y       z     vdW  Elec       q    Type
REMARK                         _______ _______ _______ _____ _____    ______ ____
ROOT
ATOM      1  N   UNL     1       5.105   9.190   1.418  0.00  0.00    +0.000 NA
ATOM      2  C   UNL     1       5.824  10.787  -0.237  0.00  0.00    +0.000 A 
ATOM      3  C   UNL     1       6.029   9.628   0.541  0.00  0.00    +0.000 A 
ATOM      4  C   UNL     1       6.809  11.215  -1.143  0.00  0.00    +0.000 A 
ATOM      5  C   UNL     1       4.620  11.485  -0.078  0.00  0.00    +0.000 A 
ATOM      6  C   UNL     1       7.224   8.934   0.383  0.00  0.00    +0.000 A 
ATOM      7  C   UNL     1       7.997  10.503  -1.282  0.00  0.00    +0.000 A 
ATOM      8  C   UNL     1       8.204   9.361  -0.518  0.00  0.00    +0.000 A 
ATOM      9  C   UNL     1       3.667  11.036   0.825  0.00  0.00    +0.000 A 
ATOM     10  C   UNL     1       3.956   9.893   1.542  0.00  0.00    +0.000 A 
ATOM     11  H   UNL     1       6.656  12.109  -1.746  0.00  0.00    +0.000 HD
ATOM     12  H   UNL     1       4.417  12.384  -0.656  0.00  0.00    +0.000 HD
ATOM     13  H   UNL     1       7.412   8.037   0.969  0.00  0.00    +0.000 HD
ATOM     14  H   UNL     1       8.755  10.837  -1.983  0.00  0.00    +0.000 HD
ATOM     15  H   UNL     1       9.128   8.799  -0.620  0.00  0.00    +0.000 HD
ATOM     16  H   UNL     1       2.730  11.564   0.961  0.00  0.00    +0.000 HD
ATOM     17  H   UNL     1       3.249   9.494   2.263  0.00  0.00    +0.000 HD
ENDROOT
TORSDOF 0
ENDMDL
MODEL 6
REMARK VINA RESULT:    -5.513      1.304      2.237
REMARK INTER + INTRA:          -5.513
REMARK INTER:                  -5.513
REMARK INTRA:                   0.000
REMARK UNBOUND:                 0.000
REMARK  Name = 7047
REMARK  0 active torsions:
REMARK  status: ('A' for Active; 'I' for Inactive)
REMARK                            x       y       z     vdW  Elec       q    Type
REMARK                         _______ _______ _______ _____ _____    ______ ____
ROOT
ATOM      1  N   UNL     1      -2.346   8.694 -12.314  0.00  0.00    +0.000 NA
ATOM      2  C   UNL     1      -2.487   8.633  -9.909  0.00  0.00    +0.000 A 
ATOM      3  C   UNL     1      -2.858   8.164 -11.187  0.00  0.00    +0.000 A 
ATOM      4  C   UNL     1      -3.041   8.056  -8.754  0.00  0.00    +0.000 A 
ATOM      5  C   UNL     1      -1.559   9.680  -9.834  0.00  0.00    +0.000 A 
ATOM      6  C   UNL     1      -3.779   7.124 -11.261  0.00  0.00    +0.000 A 
ATOM      7  C   UNL     1      -3.961   7.016  -8.857  0.00  0.00    +0.000 A 
ATOM      8  C   UNL     1      -4.330   6.550 -10.112  0.00  0.00    +0.000 A 
ATOM      9  C   UNL     1      -1.030  10.228 -10.994  0.00  0.00    +0.000 A 
ATOM     10  C   UNL     1      -1.453   9.704 -12.198  0.00  0.00    +0.000 A 
ATOM     11  H   UNL     1      -2.758   8.414  -7.766  0.00  0.00    +0.000 HD
ATOM     12  H   UNL     1      -1.243  10.075  -8.871  0.00  0.00    +0.000 HD
ATOM     13  H   UNL     1      -4.085   6.740 -12.232  0.00  0.00    +0.000 HD
ATOM     14  H   UNL     1      -4.387   6.574  -7.962  0.00  0.00    +0.000 HD
ATOM     15  H   UNL     1      -5.047   5.739 -10.202  0.00  0.00    +0.000 HD
ATOM     16  H   UNL     1      -0.312  11.038 -10.954  0.00  0.00    +0.000 HD
ATOM     17  H   UNL     1      -1.074  10.092 -13.138  0.00  0.00    +0.000 HD
ENDROOT
TORSDOF 0
ENDMDL
MODEL 7
REMARK VINA RESULT:    -5.337      1.457      1.843
REMARK INTER + INTRA:          -5.337
REMARK INTER:                  -5.337
REMARK INTRA:                   0.000
REMARK UNBOUND:                 0.000
REMARK  Name = 7047
REMARK  0 active torsions:
REMARK  status: ('A' for Active; 'I' for Inactive)
REMARK                            x       y       z     vdW  Elec       q    Type
REMARK                         _______ _______ _______ _____ _____    ______ ____
ROOT
ATOM      1  N   UNL     1      -1.826   9.355  -9.320  0.00  0.00    +0.000 NA
ATOM      2  C   UNL     1      -3.135   8.225 -10.997  0.00  0.00    +0.000 A 
ATOM      3  C   UNL     1      -2.746   8.432  -9.657  0.00  0.00    +0.000 A 
ATOM      4  C   UNL     1      -4.099   7.252 -11.313  0.00  0.00    +0.000 A 
ATOM      5  C   UNL     1      -2.536   9.012 -11.989  0.00  0.00    +0.000 A 
ATOM      6  C   UNL     1      -3.341   7.649  -8.673  0.00  0.00    +0.000 A 
ATOM      7  C   UNL     1      -4.680   6.482 -10.308  0.00  0.00    +0.000 A 
ATOM      8  C   UNL     1      -4.300   6.682  -8.987  0.00  0.00    +0.000 A 
ATOM      9  C   UNL     1      -1.587   9.964 -11.644  0.00  0.00    +0.000 A 
ATOM     10  C   UNL     1      -1.270  10.095 -10.308  0.00  0.00    +0.000 A 
ATOM     11  H   UNL     1      -4.403   7.088 -12.345  0.00  0.00    +0.000 HD
ATOM     12  H   UNL     1      -2.804   8.888 -13.035  0.00  0.00    +0.000 HD
ATOM     13  H   UNL     1      -3.062   7.785  -7.630  0.00  0.00    +0.000 HD
ATOM     14  H   UNL     1      -5.424   5.732 -10.556  0.00  0.00    +0.000 HD
ATOM     15  H   UNL     1      -4.748   6.086  -8.196  0.00  0.00    +0.000 HD
ATOM     16  H   UNL     1      -1.113  10.582 -12.398  0.00  0.00    +0.000 HD
ATOM     17  H   UNL     1      -0.536  10.823  -9.978  0.00  0.00    +0.000 HD
ENDROOT
TORSDOF 0
ENDMDL
MODEL 8
REMARK VINA RESULT:    -5.182      9.473     10.496
REMARK INTER + INTRA:          -5.182
REMARK INTER:                  -5.182
REMARK INTRA:                   0.000
REMARK UNBOUND:                 0.000
REMARK  Name = 7047
REMARK  0 active torsions:
REMARK  status: ('A' for Active; 'I' for Inactive)
REMARK                            x       y       z     vdW  Elec       q    Type
REMARK                         _______ _______ _______ _____ _____    ______ ____
ROOT
ATOM      1  N   UNL     1     -11.972   5.884  -5.901  0.00  0.00    +0.000 NA
ATOM      2  C   UNL     1      -9.648   6.234  -5.369  0.00  0.00    +0.000 A 
ATOM      3  C   UNL     1     -10.771   5.396  -5.537  0.00  0.00    +0.000 A 
ATOM      4  C   UNL     1      -8.409   5.692  -4.989  0.00  0.00    +0.000 A 
ATOM      5  C   UNL     1      -9.810   7.608  -5.592  0.00  0.00    +0.000 A 
ATOM      6  C   UNL     1     -10.610   4.032  -5.316  0.00  0.00    +0.000 A 
ATOM      7  C   UNL     1      -8.275   4.322  -4.773  0.00  0.00    +0.000 A 
ATOM      8  C   UNL     1      -9.377   3.492  -4.937  0.00  0.00    +0.000 A 
ATOM      9  C   UNL     1     -11.047   8.113  -5.967  0.00  0.00    +0.000 A 
ATOM     10  C   UNL     1     -12.087   7.216  -6.107  0.00  0.00    +0.000 A 
ATOM     11  H   UNL     1      -7.540   6.333  -4.858  0.00  0.00    +0.000 HD
ATOM     12  H   UNL     1      -8.974   8.293  -5.475  0.00  0.00    +0.000 HD
ATOM     13  H   UNL     1     -11.456   3.360  -5.437  0.00  0.00    +0.000 HD
ATOM     14  H   UNL     1      -7.316   3.907  -4.480  0.00  0.00    +0.000 HD
ATOM     15  H   UNL     1      -9.282   2.423  -4.772  0.00  0.00    +0.000 HD
ATOM     16  H   UNL     1     -11.190   9.172  -6.143  0.00  0.00    +0.000 HD
ATOM     17  H   UNL     1     -13.077   7.552  -6.398  0.00  0.00    +0.000 HD
ENDROOT
TORSDOF 0
ENDMDL
MODEL 9
REMARK VINA RESULT:    -5.032      9.457     10.549
REMARK INTER + INTRA:          -5.032
REMARK INTER:                  -5.032
REMARK INTRA:                   0.000
REMARK UNBOUND:                 0.000
REMARK  Name = 7047
REMARK  0 active torsions:
REMARK  status: ('A' for Active; 'I' for Inactive)
REMARK                            x       y       z     vdW  Elec       q    Type
REMARK                         _______ _______ _______ _____ _____    ______ ____
ROOT
ATOM      1  N   UNL     1     -11.144   4.199  -5.316  0.00  0.00    +0.000 NA
ATOM      2  C   UNL     1      -9.501   5.958  -5.401  0.00  0.00    +0.000 A 
ATOM      3  C   UNL     1     -10.836   5.504  -5.435  0.00  0.00    +0.000 A 
ATOM      4  C   UNL     1      -9.215   7.328  -5.528  0.00  0.00    +0.000 A 
ATOM      5  C   UNL     1      -8.484   5.009  -5.238  0.00  0.00    +0.000 A 
ATOM      6  C   UNL     1     -11.846   6.447  -5.596  0.00  0.00    +0.000 A 
ATOM      7  C   UNL     1     -10.245   8.251  -5.689  0.00  0.00    +0.000 A 
ATOM      8  C   UNL     1     -11.561   7.810  -5.723  0.00  0.00    +0.000 A 
ATOM      9  C   UNL     1      -8.799   3.663  -5.116  0.00  0.00    +0.000 A 
ATOM     10  C   UNL     1     -10.133   3.313  -5.160  0.00  0.00    +0.000 A 
ATOM     11  H   UNL     1      -8.187   7.684  -5.503  0.00  0.00    +0.000 HD
ATOM     12  H   UNL     1      -7.440   5.311  -5.206  0.00  0.00    +0.000 HD
ATOM     13  H   UNL     1     -12.886   6.128  -5.626  0.00  0.00    +0.000 HD
ATOM     14  H   UNL     1     -10.020   9.309  -5.786  0.00  0.00    +0.000 HD
ATOM     15  H   UNL     1     -12.371   8.523  -5.847  0.00  0.00    +0.000 HD
ATOM     16  H   UNL     1      -8.025   2.915  -4.989  0.00  0.00    +0.000 HD
ATOM     17  H   UNL     1     -10.440   2.276  -5.070  0.00  0.00    +0.000 HD
ENDROOT
TORSDOF 0
ENDMDL
MODEL 10
REMARK VINA RESULT:    -4.955     17.302     19.122
REMARK INTER + INTRA:          -4.955
REMARK INTER:                  -4.955
REMARK INTRA:                   0.000
REMARK UNBOUND:                 0.000
REMARK  Name = 7047
REMARK  0 active torsions:
REMARK  status: ('A' for Active; 'I' for Inactive)
REMARK                            x       y       z     vdW  Elec       q    Type
REMARK                         _______ _______ _______ _____ _____    ______ ____
ROOT
ATOM      1  N   UNL     1      -8.010  12.033   8.714  0.00  0.00    +0.000 NA
ATOM      2  C   UNL     1      -8.031  11.354   6.402  0.00  0.00    +0.000 A 
ATOM      3  C   UNL     1      -7.645  12.235   7.434  0.00  0.00    +0.000 A 
ATOM      4  C   UNL     1      -7.632  11.595   5.077  0.00  0.00    +0.000 A 
ATOM      5  C   UNL     1      -8.817  10.245   6.741  0.00  0.00    +0.000 A 
ATOM      6  C   UNL     1      -6.864  13.337   7.097  0.00  0.00    +0.000 A 
ATOM      7  C   UNL     1      -6.850  12.706   4.767  0.00  0.00    +0.000 A 
ATOM      8  C   UNL     1      -6.466  13.577   5.778  0.00  0.00    +0.000 A 
ATOM      9  C   UNL     1      -9.195  10.034   8.059  0.00  0.00    +0.000 A 
ATOM     10  C   UNL     1      -8.770  10.950   8.999  0.00  0.00    +0.000 A 
ATOM     11  H   UNL     1      -7.927  10.919   4.277  0.00  0.00    +0.000 HD
ATOM     12  H   UNL     1      -9.139   9.538   5.980  0.00  0.00    +0.000 HD
ATOM     13  H   UNL     1      -6.550  14.035   7.870  0.00  0.00    +0.000 HD
ATOM     14  H   UNL     1      -6.544  12.889   3.742  0.00  0.00    +0.000 HD
ATOM     15  H   UNL     1      -5.857  14.445   5.546  0.00  0.00    +0.000 HD
ATOM     16  H   UNL     1      -9.803   9.182   8.339  0.00  0.00    +0.000 HD
ATOM     17  H   UNL     1      -9.034  10.838  10.046  0.00  0.00    +0.000 HD
ENDROOT
TORSDOF 0
ENDMDL
