MODEL 1
REMARK VINA RESULT:    -5.512      0.000      0.000
REMARK INTER + INTRA:          -6.299
REMARK INTER:                  -6.129
REMARK INTRA:                  -0.171
REMARK UNBOUND:                -0.142
REMARK  Name = 5144
REMARK  2 active torsions:
REMARK  status: ('A' for Active; 'I' for Inactive)
REMARK    1  A    between atoms: C_3  and  C_7
REMARK    2  A    between atoms: C_7  and  C_11
REMARK                            x       y       z     vdW  Elec       q    Type
REMARK                         _______ _______ _______ _____ _____    ______ ____
ROOT
ATOM      1  O   UNL     1      -2.947   6.447 -10.275  0.00  0.00    +0.000 OA
ATOM      2  O   UNL     1      -3.084   8.329  -8.776  0.00  0.00    +0.000 OA
ATOM      3  C   UNL     1      -0.825   8.758 -12.177  0.00  0.00    +0.000 A 
ATOM      4  C   UNL     1      -2.232   7.515 -10.720  0.00  0.00    +0.000 A 
ATOM      5  C   UNL     1      -2.309   8.590  -9.864  0.00  0.00    +0.000 A 
ATOM      6  C   UNL     1      -1.496   7.568 -11.887  0.00  0.00    +0.000 A 
ATOM      7  C   UNL     1      -0.905   9.856 -11.302  0.00  0.00    +0.000 A 
ATOM      8  C   UNL     1      -1.656   9.777 -10.128  0.00  0.00    +0.000 A 
ATOM      9  C   UNL     1      -3.484   6.969  -9.043  0.00  0.00    +0.000 C 
ATOM     10  H   UNL     1      -1.446   6.712 -12.550  0.00  0.00    +0.000 HD
ATOM     11  H   UNL     1      -0.382  10.782 -11.533  0.00  0.00    +0.000 HD
ATOM     12  H   UNL     1      -1.721  10.622  -9.451  0.00  0.00    +0.000 HD
ATOM     13  H   UNL     1      -3.145   6.335  -8.215  0.00  0.00    +0.000 HD
ATOM     14  H   UNL     1      -4.579   6.930  -9.092  0.00  0.00    +0.000 HD
ENDROOT
BRANCH   3  15
ATOM     15  C   UNL     1      -0.017   8.868 -13.426  0.00  0.00    +0.000 C 
ATOM     16  H   UNL     1       1.047   8.726 -13.195  0.00  0.00    +0.000 HD
ATOM     17  H   UNL     1      -0.273   8.041 -14.102  0.00  0.00    +0.000 HD
BRANCH  15  18
ATOM     18  C   UNL     1      -0.181  10.195 -14.120  0.00  0.00    +0.000 C 
ATOM     19  C   UNL     1       0.762  10.770 -14.875  0.00  0.00    +0.000 C 
ATOM     20  H   UNL     1      -1.123  10.719 -13.978  0.00  0.00    +0.000 HD
ATOM     21  H   UNL     1       0.582  11.733 -15.341  0.00  0.00    +0.000 HD
ATOM     22  H   UNL     1       1.722  10.294 -15.044  0.00  0.00    +0.000 HD
ENDBRANCH  15  18
ENDBRANCH   3  15
TORSDOF 2
ENDMDL
MODEL 2
REMARK VINA RESULT:    -5.452      2.545      4.952
REMARK INTER + INTRA:          -6.232
REMARK INTER:                  -6.057
REMARK INTRA:                  -0.175
REMARK UNBOUND:                -0.142
REMARK  Name = 5144
REMARK  2 active torsions:
REMARK  status: ('A' for Active; 'I' for Inactive)
REMARK    1  A    between atoms: C_3  and  C_7
REMARK    2  A    between atoms: C_7  and  C_11
REMARK                            x       y       z     vdW  Elec       q    Type
REMARK                         _______ _______ _______ _____ _____    ______ ____
ROOT
ATOM      1  O   UNL     1      -0.075   8.526 -14.575  0.00  0.00    +0.000 OA
ATOM      2  O   UNL     1       0.067  10.720 -13.589  0.00  0.00    +0.000 OA
ATOM      3  C   UNL     1      -1.857   7.788 -11.454  0.00  0.00    +0.000 A 
ATOM      4  C   UNL     1      -0.672   8.583 -13.354  0.00  0.00    +0.000 A 
ATOM      5  C   UNL     1      -0.592   9.836 -12.791  0.00  0.00    +0.000 A 
ATOM      6  C   UNL     1      -1.300   7.536 -12.709  0.00  0.00    +0.000 A 
ATOM      7  C   UNL     1      -1.775   9.068 -10.879  0.00  0.00    +0.000 A 
ATOM      8  C   UNL     1      -1.134  10.110 -11.552  0.00  0.00    +0.000 A 
ATOM      9  C   UNL     1       0.391   9.883 -14.717  0.00  0.00    +0.000 C 
ATOM     10  H   UNL     1      -1.353   6.554 -13.168  0.00  0.00    +0.000 HD
ATOM     11  H   UNL     1      -2.209   9.259  -9.900  0.00  0.00    +0.000 HD
ATOM     12  H   UNL     1      -1.068  11.099 -11.111  0.00  0.00    +0.000 HD
ATOM     13  H   UNL     1      -0.061  10.317 -15.617  0.00  0.00    +0.000 HD
ATOM     14  H   UNL     1       1.480   9.870 -14.842  0.00  0.00    +0.000 HD
ENDROOT
BRANCH   3  15
ATOM     15  C   UNL     1      -2.546   6.690 -10.715  0.00  0.00    +0.000 C 
ATOM     16  H   UNL     1      -3.321   6.242 -11.351  0.00  0.00    +0.000 HD
ATOM     17  H   UNL     1      -1.835   5.877 -10.520  0.00  0.00    +0.000 HD
BRANCH  15  18
ATOM     18  C   UNL     1      -3.190   7.155  -9.436  0.00  0.00    +0.000 C 
ATOM     19  C   UNL     1      -4.217   6.535  -8.842  0.00  0.00    +0.000 C 
ATOM     20  H   UNL     1      -2.801   8.063  -8.981  0.00  0.00    +0.000 HD
ATOM     21  H   UNL     1      -4.640   6.928  -7.924  0.00  0.00    +0.000 HD
ATOM     22  H   UNL     1      -4.650   5.631  -9.256  0.00  0.00    +0.000 HD
ENDBRANCH  15  18
ENDBRANCH   3  15
TORSDOF 2
ENDMDL
MODEL 3
REMARK VINA RESULT:    -5.292     18.054     19.501
REMARK INTER + INTRA:          -6.053
REMARK INTER:                  -5.877
REMARK INTRA:                  -0.175
REMARK UNBOUND:                -0.142
REMARK  Name = 5144
REMARK  2 active torsions:
REMARK  status: ('A' for Active; 'I' for Inactive)
REMARK    1  A    between atoms: C_3  and  C_7
REMARK    2  A    between atoms: C_7  and  C_11
REMARK                            x       y       z     vdW  Elec       q    Type
REMARK                         _______ _______ _______ _____ _____    ______ ____
ROOT
ATOM      1  O   UNL     1     -12.178  11.912   5.585  0.00  0.00    +0.000 OA
ATOM      2  O   UNL     1     -12.036  10.396   7.452  0.00  0.00    +0.000 OA
ATOM      3  C   UNL     1      -8.552  11.362   5.507  0.00  0.00    +0.000 A 
ATOM      4  C   UNL     1     -10.903  11.506   5.823  0.00  0.00    +0.000 A 
ATOM      5  C   UNL     1     -10.821  10.639   6.889  0.00  0.00    +0.000 A 
ATOM      6  C   UNL     1      -9.784  11.887   5.110  0.00  0.00    +0.000 A 
ATOM      7  C   UNL     1      -8.469  10.477   6.596  0.00  0.00    +0.000 A 
ATOM      8  C   UNL     1      -9.616  10.107   7.301  0.00  0.00    +0.000 A 
ATOM      9  C   UNL     1     -12.891  11.206   6.620  0.00  0.00    +0.000 C 
ATOM     10  H   UNL     1      -9.867  12.572   4.273  0.00  0.00    +0.000 HD
ATOM     11  H   UNL     1      -7.507  10.072   6.902  0.00  0.00    +0.000 HD
ATOM     12  H   UNL     1      -9.555   9.425   8.142  0.00  0.00    +0.000 HD
ATOM     13  H   UNL     1     -13.640  10.557   6.151  0.00  0.00    +0.000 HD
ATOM     14  H   UNL     1     -13.407  11.936   7.255  0.00  0.00    +0.000 HD
ENDROOT
BRANCH   3  15
ATOM     15  C   UNL     1      -7.312  11.743   4.769  0.00  0.00    +0.000 C 
ATOM     16  H   UNL     1      -6.453  11.195   5.177  0.00  0.00    +0.000 HD
ATOM     17  H   UNL     1      -7.391  11.412   3.725  0.00  0.00    +0.000 HD
BRANCH  15  18
ATOM     18  C   UNL     1      -7.015  13.218   4.840  0.00  0.00    +0.000 C 
ATOM     19  C   UNL     1      -5.940  13.740   5.444  0.00  0.00    +0.000 C 
ATOM     20  H   UNL     1      -7.733  13.895   4.385  0.00  0.00    +0.000 HD
ATOM     21  H   UNL     1      -5.790  14.813   5.466  0.00  0.00    +0.000 HD
ATOM     22  H   UNL     1      -5.197  13.111   5.921  0.00  0.00    +0.000 HD
ENDBRANCH  15  18
ENDBRANCH   3  15
TORSDOF 2
ENDMDL
MODEL 4
REMARK VINA RESULT:    -5.198     26.931     28.352
REMARK INTER + INTRA:          -5.948
REMARK INTER:                  -5.796
REMARK INTRA:                  -0.152
REMARK UNBOUND:                -0.142
REMARK  Name = 5144
REMARK  2 active torsions:
REMARK  status: ('A' for Active; 'I' for Inactive)
REMARK    1  A    between atoms: C_3  and  C_7
REMARK    2  A    between atoms: C_7  and  C_11
REMARK                            x       y       z     vdW  Elec       q    Type
REMARK                         _______ _______ _______ _____ _____    ______ ____
ROOT
ATOM      1  O   UNL     1     -20.204  -5.290   4.335  0.00  0.00    +0.000 OA
ATOM      2  O   UNL     1     -20.744  -3.981   2.385  0.00  0.00    +0.000 OA
ATOM      3  C   UNL     1     -20.755  -2.081   6.024  0.00  0.00    +0.000 A 
ATOM      4  C   UNL     1     -20.472  -3.993   4.642  0.00  0.00    +0.000 A 
ATOM      5  C   UNL     1     -20.782  -3.245   3.529  0.00  0.00    +0.000 A 
ATOM      6  C   UNL     1     -20.451  -3.438   5.906  0.00  0.00    +0.000 A 
ATOM      7  C   UNL     1     -21.071  -1.317   4.886  0.00  0.00    +0.000 A 
ATOM      8  C   UNL     1     -21.085  -1.902   3.618  0.00  0.00    +0.000 A 
ATOM      9  C   UNL     1     -20.378  -5.276   2.903  0.00  0.00    +0.000 C 
ATOM     10  H   UNL     1     -20.205  -4.043   6.772  0.00  0.00    +0.000 HD
ATOM     11  H   UNL     1     -21.306  -0.259   4.983  0.00  0.00    +0.000 HD
ATOM     12  H   UNL     1     -21.327  -1.315   2.739  0.00  0.00    +0.000 HD
ATOM     13  H   UNL     1     -21.163  -5.995   2.638  0.00  0.00    +0.000 HD
ATOM     14  H   UNL     1     -19.440  -5.589   2.431  0.00  0.00    +0.000 HD
ENDROOT
BRANCH   3  15
ATOM     15  C   UNL     1     -20.746  -1.433   7.368  0.00  0.00    +0.000 C 
ATOM     16  H   UNL     1     -19.877  -1.780   7.943  0.00  0.00    +0.000 HD
ATOM     17  H   UNL     1     -20.597  -0.352   7.253  0.00  0.00    +0.000 HD
BRANCH  15  18
ATOM     18  C   UNL     1     -21.991  -1.718   8.168  0.00  0.00    +0.000 C 
ATOM     19  C   UNL     1     -22.620  -0.814   8.927  0.00  0.00    +0.000 C 
ATOM     20  H   UNL     1     -22.386  -2.731   8.133  0.00  0.00    +0.000 HD
ATOM     21  H   UNL     1     -23.508  -1.088   9.485  0.00  0.00    +0.000 HD
ATOM     22  H   UNL     1     -22.264   0.208   9.004  0.00  0.00    +0.000 HD
ENDBRANCH  15  18
ENDBRANCH   3  15
TORSDOF 2
ENDMDL
MODEL 5
REMARK VINA RESULT:    -5.137      9.970     10.796
REMARK INTER + INTRA:          -5.880
REMARK INTER:                  -5.735
REMARK INTRA:                  -0.145
REMARK UNBOUND:                -0.142
REMARK  Name = 5144
REMARK  2 active torsions:
REMARK  status: ('A' for Active; 'I' for Inactive)
REMARK    1  A    between atoms: C_3  and  C_7
REMARK    2  A    between atoms: C_7  and  C_11
REMARK                            x       y       z     vdW  Elec       q    Type
REMARK                         _______ _______ _______ _____ _____    ______ ____
ROOT
ATOM      1  O   UNL     1     -11.589   4.164  -5.483  0.00  0.00    +0.000 OA
ATOM      2  O   UNL     1      -9.361   3.442  -4.912  0.00  0.00    +0.000 OA
ATOM      3  C   UNL     1      -9.944   7.439  -5.646  0.00  0.00    +0.000 A 
ATOM      4  C   UNL     1     -10.702   5.195  -5.458  0.00  0.00    +0.000 A 
ATOM      5  C   UNL     1      -9.430   4.783  -5.133  0.00  0.00    +0.000 A 
ATOM      6  C   UNL     1     -10.992   6.519  -5.721  0.00  0.00    +0.000 A 
ATOM      7  C   UNL     1      -8.645   7.018  -5.313  0.00  0.00    +0.000 A 
ATOM      8  C   UNL     1      -8.378   5.673  -5.052  0.00  0.00    +0.000 A 
ATOM      9  C   UNL     1     -10.733   3.056  -5.136  0.00  0.00    +0.000 C 
ATOM     10  H   UNL     1     -12.001   6.826  -5.976  0.00  0.00    +0.000 HD
ATOM     11  H   UNL     1      -7.832   7.739  -5.254  0.00  0.00    +0.000 HD
ATOM     12  H   UNL     1      -7.377   5.345  -4.794  0.00  0.00    +0.000 HD
ATOM     13  H   UNL     1     -10.762   2.321  -5.950  0.00  0.00    +0.000 HD
ATOM     14  H   UNL     1     -11.117   2.586  -4.223  0.00  0.00    +0.000 HD
ENDROOT
BRANCH   3  15
ATOM     15  C   UNL     1     -10.205   8.882  -5.920  0.00  0.00    +0.000 C 
ATOM     16  H   UNL     1     -11.143   9.190  -5.439  0.00  0.00    +0.000 HD
ATOM     17  H   UNL     1      -9.428   9.492  -5.443  0.00  0.00    +0.000 HD
BRANCH  15  18
ATOM     18  C   UNL     1     -10.300   9.194  -7.391  0.00  0.00    +0.000 C 
ATOM     19  C   UNL     1     -10.893  10.284  -7.892  0.00  0.00    +0.000 C 
ATOM     20  H   UNL     1      -9.871   8.473  -8.083  0.00  0.00    +0.000 HD
ATOM     21  H   UNL     1     -10.934  10.444  -8.964  0.00  0.00    +0.000 HD
ATOM     22  H   UNL     1     -11.344  11.031  -7.248  0.00  0.00    +0.000 HD
ENDBRANCH  15  18
ENDBRANCH   3  15
TORSDOF 2
ENDMDL
MODEL 6
REMARK VINA RESULT:    -5.094     32.592     35.975
REMARK INTER + INTRA:          -5.832
REMARK INTER:                  -5.674
REMARK INTRA:                  -0.158
REMARK UNBOUND:                -0.142
REMARK  Name = 5144
REMARK  2 active torsions:
REMARK  status: ('A' for Active; 'I' for Inactive)
REMARK    1  A    between atoms: C_3  and  C_7
REMARK    2  A    between atoms: C_7  and  C_11
REMARK                            x       y       z     vdW  Elec       q    Type
REMARK                         _______ _______ _______ _____ _____    ______ ____
ROOT
ATOM      1  O   UNL     1     -10.712  -9.527  14.847  0.00  0.00    +0.000 OA
ATOM      2  O   UNL     1      -8.496 -10.346  14.376  0.00  0.00    +0.000 OA
ATOM      3  C   UNL     1     -10.535 -12.050  17.504  0.00  0.00    +0.000 A 
ATOM      4  C   UNL     1     -10.335 -10.517  15.700  0.00  0.00    +0.000 A 
ATOM      5  C   UNL     1      -9.069 -10.984  15.432  0.00  0.00    +0.000 A 
ATOM      6  C   UNL     1     -11.095 -11.030  16.732  0.00  0.00    +0.000 A 
ATOM      7  C   UNL     1      -9.242 -12.528  17.229  0.00  0.00    +0.000 A 
ATOM      8  C   UNL     1      -8.493 -11.991  16.179  0.00  0.00    +0.000 A 
ATOM      9  C   UNL     1      -9.542  -9.423  14.010  0.00  0.00    +0.000 C 
ATOM     10  H   UNL     1     -12.091 -10.650  16.929  0.00  0.00    +0.000 HD
ATOM     11  H   UNL     1      -8.810 -13.324  17.833  0.00  0.00    +0.000 HD
ATOM     12  H   UNL     1      -7.496 -12.358  15.964  0.00  0.00    +0.000 HD
ATOM     13  H   UNL     1      -9.150  -8.402  14.081  0.00  0.00    +0.000 HD
ATOM     14  H   UNL     1      -9.834  -9.618  12.972  0.00  0.00    +0.000 HD
ENDROOT
BRANCH   3  15
ATOM     15  C   UNL     1     -11.315 -12.640  18.631  0.00  0.00    +0.000 C 
ATOM     16  H   UNL     1     -12.230 -12.056  18.796  0.00  0.00    +0.000 HD
ATOM     17  H   UNL     1     -11.664 -13.642  18.351  0.00  0.00    +0.000 HD
BRANCH  15  18
ATOM     18  C   UNL     1     -10.541 -12.686  19.923  0.00  0.00    +0.000 C 
ATOM     19  C   UNL     1     -11.016 -13.192  21.067  0.00  0.00    +0.000 C 
ATOM     20  H   UNL     1      -9.539 -12.263  19.920  0.00  0.00    +0.000 HD
ATOM     21  H   UNL     1     -10.408 -13.187  21.964  0.00  0.00    +0.000 HD
ATOM     22  H   UNL     1     -12.011 -13.619  21.127  0.00  0.00    +0.000 HD
ENDBRANCH  15  18
ENDBRANCH   3  15
TORSDOF 2
ENDMDL
MODEL 7
REMARK VINA RESULT:    -4.990      2.868      5.299
REMARK INTER + INTRA:          -5.716
REMARK INTER:                  -5.536
REMARK INTRA:                  -0.180
REMARK UNBOUND:                -0.142
REMARK  Name = 5144
REMARK  2 active torsions:
REMARK  status: ('A' for Active; 'I' for Inactive)
REMARK    1  A    between atoms: C_3  and  C_7
REMARK    2  A    between atoms: C_7  and  C_11
REMARK                            x       y       z     vdW  Elec       q    Type
REMARK                         _______ _______ _______ _____ _____    ______ ____
ROOT
ATOM      1  O   UNL     1       0.693   9.498 -13.924  0.00  0.00    +0.000 OA
ATOM      2  O   UNL     1      -0.478   8.770 -15.899  0.00  0.00    +0.000 OA
ATOM      3  C   UNL     1      -1.726   7.281 -12.283  0.00  0.00    +0.000 A 
ATOM      4  C   UNL     1      -0.311   8.627 -13.637  0.00  0.00    +0.000 A 
ATOM      5  C   UNL     1      -0.979   8.210 -14.765  0.00  0.00    +0.000 A 
ATOM      6  C   UNL     1      -0.661   8.179 -12.379  0.00  0.00    +0.000 A 
ATOM      7  C   UNL     1      -2.409   6.856 -13.436  0.00  0.00    +0.000 A 
ATOM      8  C   UNL     1      -2.035   7.324 -14.697  0.00  0.00    +0.000 A 
ATOM      9  C   UNL     1       0.582   9.585 -15.359  0.00  0.00    +0.000 C 
ATOM     10  H   UNL     1      -0.123   8.519 -11.500  0.00  0.00    +0.000 HD
ATOM     11  H   UNL     1      -3.239   6.157 -13.356  0.00  0.00    +0.000 HD
ATOM     12  H   UNL     1      -2.560   6.998 -15.589  0.00  0.00    +0.000 HD
ATOM     13  H   UNL     1       1.532   9.266 -15.804  0.00  0.00    +0.000 HD
ATOM     14  H   UNL     1       0.396  10.629 -15.635  0.00  0.00    +0.000 HD
ENDROOT
BRANCH   3  15
ATOM     15  C   UNL     1      -2.144   6.768 -10.946  0.00  0.00    +0.000 C 
ATOM     16  H   UNL     1      -2.612   5.781 -11.056  0.00  0.00    +0.000 HD
ATOM     17  H   UNL     1      -1.255   6.593 -10.326  0.00  0.00    +0.000 HD
BRANCH  15  18
ATOM     18  C   UNL     1      -3.115   7.680 -10.242  0.00  0.00    +0.000 C 
ATOM     19  C   UNL     1      -2.768   8.562  -9.298  0.00  0.00    +0.000 C 
ATOM     20  H   UNL     1      -4.164   7.597 -10.513  0.00  0.00    +0.000 HD
ATOM     21  H   UNL     1      -3.519   9.184  -8.824  0.00  0.00    +0.000 HD
ATOM     22  H   UNL     1      -1.736   8.680  -8.984  0.00  0.00    +0.000 HD
ENDBRANCH  15  18
ENDBRANCH   3  15
TORSDOF 2
ENDMDL
MODEL 8
REMARK VINA RESULT:    -4.986      8.958      9.987
REMARK INTER + INTRA:          -5.712
REMARK INTER:                  -5.535
REMARK INTRA:                  -0.177
REMARK UNBOUND:                -0.142
REMARK  Name = 5144
REMARK  2 active torsions:
REMARK  status: ('A' for Active; 'I' for Inactive)
REMARK    1  A    between atoms: C_3  and  C_7
REMARK    2  A    between atoms: C_7  and  C_11
REMARK                            x       y       z     vdW  Elec       q    Type
REMARK                         _______ _______ _______ _____ _____    ______ ____
ROOT
ATOM      1  O   UNL     1       0.813   0.739 -16.112  0.00  0.00    +0.000 OA
ATOM      2  O   UNL     1       2.719   1.234 -14.724  0.00  0.00    +0.000 OA
ATOM      3  C   UNL     1      -0.742   0.047 -12.862  0.00  0.00    +0.000 A 
ATOM      4  C   UNL     1       0.546   0.570 -14.789  0.00  0.00    +0.000 A 
ATOM      5  C   UNL     1       1.634   0.854 -13.996  0.00  0.00    +0.000 A 
ATOM      6  C   UNL     1      -0.659   0.164 -14.251  0.00  0.00    +0.000 A 
ATOM      7  C   UNL     1       0.371   0.336 -12.052  0.00  0.00    +0.000 A 
ATOM      8  C   UNL     1       1.578   0.745 -12.621  0.00  0.00    +0.000 A 
ATOM      9  C   UNL     1       2.192   1.159 -16.064  0.00  0.00    +0.000 C 
ATOM     10  H   UNL     1      -1.506  -0.055 -14.891  0.00  0.00    +0.000 HD
ATOM     11  H   UNL     1       0.302   0.242 -10.970  0.00  0.00    +0.000 HD
ATOM     12  H   UNL     1       2.438   0.968 -11.999  0.00  0.00    +0.000 HD
ATOM     13  H   UNL     1       2.273   2.149 -16.529  0.00  0.00    +0.000 HD
ATOM     14  H   UNL     1       2.797   0.449 -16.640  0.00  0.00    +0.000 HD
ENDROOT
BRANCH   3  15
ATOM     15  C   UNL     1      -2.021  -0.388 -12.230  0.00  0.00    +0.000 C 
ATOM     16  H   UNL     1      -2.796   0.372 -12.396  0.00  0.00    +0.000 HD
ATOM     17  H   UNL     1      -2.393  -1.288 -12.737  0.00  0.00    +0.000 HD
BRANCH  15  18
ATOM     18  C   UNL     1      -1.896  -0.624 -10.748  0.00  0.00    +0.000 C 
ATOM     19  C   UNL     1      -2.905  -0.499  -9.878  0.00  0.00    +0.000 C 
ATOM     20  H   UNL     1      -0.915  -0.897 -10.367  0.00  0.00    +0.000 HD
ATOM     21  H   UNL     1      -2.744  -0.676  -8.820  0.00  0.00    +0.000 HD
ATOM     22  H   UNL     1      -3.902  -0.221 -10.203  0.00  0.00    +0.000 HD
ENDBRANCH  15  18
ENDBRANCH   3  15
TORSDOF 2
ENDMDL
MODEL 9
REMARK VINA RESULT:    -4.895      8.899     10.328
REMARK INTER + INTRA:          -5.610
REMARK INTER:                  -5.468
REMARK INTRA:                  -0.142
REMARK UNBOUND:                -0.142
REMARK  Name = 5144
REMARK  2 active torsions:
REMARK  status: ('A' for Active; 'I' for Inactive)
REMARK    1  A    between atoms: C_3  and  C_7
REMARK    2  A    between atoms: C_7  and  C_11
REMARK                            x       y       z     vdW  Elec       q    Type
REMARK                         _______ _______ _______ _____ _____    ______ ____
ROOT
ATOM      1  O   UNL     1      -9.519   7.904  -9.560  0.00  0.00    +0.000 OA
ATOM      2  O   UNL     1     -10.746   9.739  -8.591  0.00  0.00    +0.000 OA
ATOM      3  C   UNL     1      -9.154   6.947  -6.037  0.00  0.00    +0.000 A 
ATOM      4  C   UNL     1      -9.568   7.834  -8.202  0.00  0.00    +0.000 A 
ATOM      5  C   UNL     1     -10.269   8.881  -7.649  0.00  0.00    +0.000 A 
ATOM      6  C   UNL     1      -8.998   6.849  -7.421  0.00  0.00    +0.000 A 
ATOM      7  C   UNL     1      -9.870   8.017  -5.472  0.00  0.00    +0.000 A 
ATOM      8  C   UNL     1     -10.437   9.001  -6.284  0.00  0.00    +0.000 A 
ATOM      9  C   UNL     1     -10.267   9.114  -9.800  0.00  0.00    +0.000 C 
ATOM     10  H   UNL     1      -8.448   6.031  -7.874  0.00  0.00    +0.000 HD
ATOM     11  H   UNL     1      -9.988   8.090  -4.393  0.00  0.00    +0.000 HD
ATOM     12  H   UNL     1     -10.989   9.828  -5.852  0.00  0.00    +0.000 HD
ATOM     13  H   UNL     1     -11.129   8.873 -10.435  0.00  0.00    +0.000 HD
ATOM     14  H   UNL     1      -9.625   9.825 -10.332  0.00  0.00    +0.000 HD
ENDROOT
BRANCH   3  15
ATOM     15  C   UNL     1      -8.557   5.908  -5.148  0.00  0.00    +0.000 C 
ATOM     16  H   UNL     1      -7.530   5.688  -5.469  0.00  0.00    +0.000 HD
ATOM     17  H   UNL     1      -8.457   6.309  -4.132  0.00  0.00    +0.000 HD
BRANCH  15  18
ATOM     18  C   UNL     1      -9.338   4.620  -5.140  0.00  0.00    +0.000 C 
ATOM     19  C   UNL     1      -8.874   3.462  -4.657  0.00  0.00    +0.000 C 
ATOM     20  H   UNL     1     -10.336   4.638  -5.572  0.00  0.00    +0.000 HD
ATOM     21  H   UNL     1      -9.487   2.568  -4.689  0.00  0.00    +0.000 HD
ATOM     22  H   UNL     1      -7.883   3.385  -4.222  0.00  0.00    +0.000 HD
ENDBRANCH  15  18
ENDBRANCH   3  15
TORSDOF 2
ENDMDL
MODEL 10
REMARK VINA RESULT:    -4.895      9.837     10.810
REMARK INTER + INTRA:          -5.610
REMARK INTER:                  -5.429
REMARK INTRA:                  -0.181
REMARK UNBOUND:                -0.142
REMARK  Name = 5144
REMARK  2 active torsions:
REMARK  status: ('A' for Active; 'I' for Inactive)
REMARK    1  A    between atoms: C_3  and  C_7
REMARK    2  A    between atoms: C_7  and  C_11
REMARK                            x       y       z     vdW  Elec       q    Type
REMARK                         _______ _______ _______ _____ _____    ______ ____
ROOT
ATOM      1  O   UNL     1       1.264  -1.406 -12.576  0.00  0.00    +0.000 OA
ATOM      2  O   UNL     1       0.568   0.780 -13.313  0.00  0.00    +0.000 OA
ATOM      3  C   UNL     1       4.175  -0.634 -14.670  0.00  0.00    +0.000 A 
ATOM      4  C   UNL     1       2.173  -0.828 -13.406  0.00  0.00    +0.000 A 
ATOM      5  C   UNL     1       1.777   0.422 -13.826  0.00  0.00    +0.000 A 
ATOM      6  C   UNL     1       3.370  -1.384 -13.810  0.00  0.00    +0.000 A 
ATOM      7  C   UNL     1       3.770   0.642 -15.100  0.00  0.00    +0.000 A 
ATOM      8  C   UNL     1       2.554   1.182 -14.676  0.00  0.00    +0.000 A 
ATOM      9  C   UNL     1       0.249  -0.383 -12.522  0.00  0.00    +0.000 C 
ATOM     10  H   UNL     1       3.666  -2.370 -13.470  0.00  0.00    +0.000 HD
ATOM     11  H   UNL     1       4.400   1.221 -15.771  0.00  0.00    +0.000 HD
ATOM     12  H   UNL     1       2.238   2.165 -15.006  0.00  0.00    +0.000 HD
ATOM     13  H   UNL     1       0.120  -0.072 -11.478  0.00  0.00    +0.000 HD
ATOM     14  H   UNL     1      -0.696  -0.804 -12.883  0.00  0.00    +0.000 HD
ENDROOT
BRANCH   3  15
ATOM     15  C   UNL     1       5.479  -1.191 -15.137  0.00  0.00    +0.000 C 
ATOM     16  H   UNL     1       6.294  -0.806 -14.510  0.00  0.00    +0.000 HD
ATOM     17  H   UNL     1       5.490  -2.277 -14.983  0.00  0.00    +0.000 HD
BRANCH  15  18
ATOM     18  C   UNL     1       5.782  -0.852 -16.573  0.00  0.00    +0.000 C 
ATOM     19  C   UNL     1       6.185  -1.743 -17.487  0.00  0.00    +0.000 C 
ATOM     20  H   UNL     1       5.682   0.188 -16.874  0.00  0.00    +0.000 HD
ATOM     21  H   UNL     1       6.395  -1.431 -18.504  0.00  0.00    +0.000 HD
ATOM     22  H   UNL     1       6.309  -2.792 -17.240  0.00  0.00    +0.000 HD
ENDBRANCH  15  18
ENDBRANCH   3  15
TORSDOF 2
ENDMDL
