MODEL 1
REMARK VINA RESULT:    -2.835      0.000      0.000
REMARK INTER + INTRA:          -2.835
REMARK INTER:                  -2.835
REMARK INTRA:                   0.000
REMARK UNBOUND:                 0.000
REMARK  Name = 9256
REMARK  0 active torsions:
REMARK  status: ('A' for Active; 'I' for Inactive)
REMARK                            x       y       z     vdW  Elec       q    Type
REMARK                         _______ _______ _______ _____ _____    ______ ____
ROOT
ATOM      1  S   UNL     1       4.794  10.876  -0.677  0.00  0.00    +0.000 S 
ATOM      2  N   UNL     1       3.250  11.200   1.370  0.00  0.00    +0.000 NA
ATOM      3  C   UNL     1       4.762   9.637   0.508  0.00  0.00    +0.000 A 
ATOM      4  C   UNL     1       3.888   9.983   1.517  0.00  0.00    +0.000 A 
ATOM      5  C   UNL     1       3.651  11.758   0.250  0.00  0.00    +0.000 A 
ATOM      6  H   UNL     1       5.364   8.744   0.414  0.00  0.00    +0.000 HD
ATOM      7  H   UNL     1       3.677   9.379   2.388  0.00  0.00    +0.000 HD
ATOM      8  H   UNL     1       3.283  12.722  -0.076  0.00  0.00    +0.000 HD
ENDROOT
TORSDOF 0
ENDMDL
MODEL 2
REMARK VINA RESULT:    -2.728     28.823     29.225
REMARK INTER + INTRA:          -2.728
REMARK INTER:                  -2.728
REMARK INTRA:                   0.000
REMARK UNBOUND:                 0.000
REMARK  Name = 9256
REMARK  0 active torsions:
REMARK  status: ('A' for Active; 'I' for Inactive)
REMARK                            x       y       z     vdW  Elec       q    Type
REMARK                         _______ _______ _______ _____ _____    ______ ____
ROOT
ATOM      1  S   UNL     1      -9.151 -11.901  16.135  0.00  0.00    +0.000 S 
ATOM      2  N   UNL     1      -8.523 -10.537  14.031  0.00  0.00    +0.000 NA
ATOM      3  C   UNL     1     -10.053 -10.480  15.800  0.00  0.00    +0.000 A 
ATOM      4  C   UNL     1      -9.577  -9.891  14.648  0.00  0.00    +0.000 A 
ATOM      5  C   UNL     1      -8.215 -11.608  14.727  0.00  0.00    +0.000 A 
ATOM      6  H   UNL     1     -10.860 -10.154  16.441  0.00  0.00    +0.000 HD
ATOM      7  H   UNL     1      -9.968  -8.983  14.210  0.00  0.00    +0.000 HD
ATOM      8  H   UNL     1      -7.414 -12.274  14.433  0.00  0.00    +0.000 HD
ENDROOT
TORSDOF 0
ENDMDL
MODEL 3
REMARK VINA RESULT:    -2.687     12.523     12.781
REMARK INTER + INTRA:          -2.687
REMARK INTER:                  -2.687
REMARK INTRA:                   0.000
REMARK UNBOUND:                 0.000
REMARK  Name = 9256
REMARK  0 active torsions:
REMARK  status: ('A' for Active; 'I' for Inactive)
REMARK                            x       y       z     vdW  Elec       q    Type
REMARK                         _______ _______ _______ _____ _____    ______ ____
ROOT
ATOM      1  S   UNL     1      -2.459   7.005 -10.924  0.00  0.00    +0.000 S 
ATOM      2  N   UNL     1      -3.173   7.909  -8.609  0.00  0.00    +0.000 NA
ATOM      3  C   UNL     1      -2.077   8.634 -10.545  0.00  0.00    +0.000 A 
ATOM      4  C   UNL     1      -2.533   8.934  -9.279  0.00  0.00    +0.000 A 
ATOM      5  C   UNL     1      -3.192   6.845  -9.380  0.00  0.00    +0.000 A 
ATOM      6  H   UNL     1      -1.556   9.273 -11.243  0.00  0.00    +0.000 HD
ATOM      7  H   UNL     1      -2.423   9.894  -8.792  0.00  0.00    +0.000 HD
ATOM      8  H   UNL     1      -3.645   5.914  -9.065  0.00  0.00    +0.000 HD
ENDROOT
TORSDOF 0
ENDMDL
MODEL 4
REMARK VINA RESULT:    -2.649     29.213     29.705
REMARK INTER + INTRA:          -2.649
REMARK INTER:                  -2.649
REMARK INTRA:                   0.000
REMARK UNBOUND:                 0.000
REMARK  Name = 9256
REMARK  0 active torsions:
REMARK  status: ('A' for Active; 'I' for Inactive)
REMARK                            x       y       z     vdW  Elec       q    Type
REMARK                         _______ _______ _______ _____ _____    ______ ____
ROOT
ATOM      1  S   UNL     1      -9.931 -12.136  16.104  0.00  0.00    +0.000 S 
ATOM      2  N   UNL     1     -10.564  -9.761  15.302  0.00  0.00    +0.000 NA
ATOM      3  C   UNL     1      -8.861 -11.340  15.025  0.00  0.00    +0.000 A 
ATOM      4  C   UNL     1      -9.361 -10.095  14.711  0.00  0.00    +0.000 A 
ATOM      5  C   UNL     1     -10.958 -10.762  16.057  0.00  0.00    +0.000 A 
ATOM      6  H   UNL     1      -7.947 -11.807  14.684  0.00  0.00    +0.000 HD
ATOM      7  H   UNL     1      -8.882  -9.384  14.051  0.00  0.00    +0.000 HD
ATOM      8  H   UNL     1     -11.881 -10.727  16.622  0.00  0.00    +0.000 HD
ENDROOT
TORSDOF 0
ENDMDL
MODEL 5
REMARK VINA RESULT:    -2.461     12.723     13.056
REMARK INTER + INTRA:          -2.461
REMARK INTER:                  -2.461
REMARK INTRA:                   0.000
REMARK UNBOUND:                 0.000
REMARK  Name = 9256
REMARK  0 active torsions:
REMARK  status: ('A' for Active; 'I' for Inactive)
REMARK                            x       y       z     vdW  Elec       q    Type
REMARK                         _______ _______ _______ _____ _____    ______ ____
ROOT
ATOM      1  S   UNL     1      -2.415   9.308  -9.511  0.00  0.00    +0.000 S 
ATOM      2  N   UNL     1      -1.552   7.998 -11.565  0.00  0.00    +0.000 NA
ATOM      3  C   UNL     1      -1.244  10.063 -10.511  0.00  0.00    +0.000 A 
ATOM      4  C   UNL     1      -0.906   9.219 -11.547  0.00  0.00    +0.000 A 
ATOM      5  C   UNL     1      -2.370   7.935 -10.539  0.00  0.00    +0.000 A 
ATOM      6  H   UNL     1      -0.870  11.055 -10.299  0.00  0.00    +0.000 HD
ATOM      7  H   UNL     1      -0.190   9.449 -12.325  0.00  0.00    +0.000 HD
ATOM      8  H   UNL     1      -2.986   7.065 -10.347  0.00  0.00    +0.000 HD
ENDROOT
TORSDOF 0
ENDMDL
MODEL 6
REMARK VINA RESULT:    -2.336     28.178     28.406
REMARK INTER + INTRA:          -2.336
REMARK INTER:                  -2.336
REMARK INTRA:                   0.000
REMARK UNBOUND:                 0.000
REMARK  Name = 9256
REMARK  0 active torsions:
REMARK  status: ('A' for Active; 'I' for Inactive)
REMARK                            x       y       z     vdW  Elec       q    Type
REMARK                         _______ _______ _______ _____ _____    ______ ____
ROOT
ATOM      1  S   UNL     1     -21.384  -2.271   7.370  0.00  0.00    +0.000 S 
ATOM      2  N   UNL     1     -20.390  -0.273   6.065  0.00  0.00    +0.000 NA
ATOM      3  C   UNL     1     -21.409  -2.339   5.656  0.00  0.00    +0.000 A 
ATOM      4  C   UNL     1     -20.841  -1.194   5.139  0.00  0.00    +0.000 A 
ATOM      5  C   UNL     1     -20.624  -0.736   7.273  0.00  0.00    +0.000 A 
ATOM      6  H   UNL     1     -21.826  -3.184   5.127  0.00  0.00    +0.000 HD
ATOM      7  H   UNL     1     -20.729  -0.980   4.085  0.00  0.00    +0.000 HD
ATOM      8  H   UNL     1     -20.355  -0.182   8.163  0.00  0.00    +0.000 HD
ENDROOT
TORSDOF 0
ENDMDL
MODEL 7
REMARK VINA RESULT:    -2.195     14.834     14.909
REMARK INTER + INTRA:          -2.195
REMARK INTER:                  -2.195
REMARK INTRA:                   0.000
REMARK UNBOUND:                 0.000
REMARK  Name = 9256
REMARK  0 active torsions:
REMARK  status: ('A' for Active; 'I' for Inactive)
REMARK                            x       y       z     vdW  Elec       q    Type
REMARK                         _______ _______ _______ _____ _____    ______ ____
ROOT
ATOM      1  S   UNL     1      -8.273   4.195  -6.507  0.00  0.00    +0.000 S 
ATOM      2  N   UNL     1      -7.977   6.751  -6.251  0.00  0.00    +0.000 NA
ATOM      3  C   UNL     1      -8.506   4.879  -4.951  0.00  0.00    +0.000 A 
ATOM      4  C   UNL     1      -8.307   6.242  -5.010  0.00  0.00    +0.000 A 
ATOM      5  C   UNL     1      -7.931   5.763  -7.116  0.00  0.00    +0.000 A 
ATOM      6  H   UNL     1      -8.767   4.271  -4.096  0.00  0.00    +0.000 HD
ATOM      7  H   UNL     1      -8.392   6.917  -4.169  0.00  0.00    +0.000 HD
ATOM      8  H   UNL     1      -7.690   5.923  -8.159  0.00  0.00    +0.000 HD
ENDROOT
TORSDOF 0
ENDMDL
MODEL 8
REMARK VINA RESULT:    -2.101     28.138     28.451
REMARK INTER + INTRA:          -2.101
REMARK INTER:                  -2.101
REMARK INTRA:                   0.000
REMARK UNBOUND:                 0.000
REMARK  Name = 9256
REMARK  0 active torsions:
REMARK  status: ('A' for Active; 'I' for Inactive)
REMARK                            x       y       z     vdW  Elec       q    Type
REMARK                         _______ _______ _______ _____ _____    ______ ____
ROOT
ATOM      1  S   UNL     1     -20.725  -3.905   2.987  0.00  0.00    +0.000 S 
ATOM      2  N   UNL     1     -18.521  -5.186   3.415  0.00  0.00    +0.000 NA
ATOM      3  C   UNL     1     -20.430  -4.488   4.573  0.00  0.00    +0.000 A 
ATOM      4  C   UNL     1     -19.216  -5.140   4.609  0.00  0.00    +0.000 A 
ATOM      5  C   UNL     1     -19.221  -4.567   2.492  0.00  0.00    +0.000 A 
ATOM      6  H   UNL     1     -21.136  -4.333   5.377  0.00  0.00    +0.000 HD
ATOM      7  H   UNL     1     -18.787  -5.603   5.487  0.00  0.00    +0.000 HD
ATOM      8  H   UNL     1     -18.874  -4.475   1.471  0.00  0.00    +0.000 HD
ENDROOT
TORSDOF 0
ENDMDL
MODEL 9
REMARK VINA RESULT:    -2.097     30.138     30.409
REMARK INTER + INTRA:          -2.097
REMARK INTER:                  -2.097
REMARK INTRA:                   0.000
REMARK UNBOUND:                 0.000
REMARK  Name = 9256
REMARK  0 active torsions:
REMARK  status: ('A' for Active; 'I' for Inactive)
REMARK                            x       y       z     vdW  Elec       q    Type
REMARK                         _______ _______ _______ _____ _____    ______ ____
ROOT
ATOM      1  S   UNL     1     -13.176 -10.470  16.470  0.00  0.00    +0.000 S 
ATOM      2  N   UNL     1     -11.260  -9.362  15.133  0.00  0.00    +0.000 NA
ATOM      3  C   UNL     1     -11.596 -11.116  16.645  0.00  0.00    +0.000 A 
ATOM      4  C   UNL     1     -10.715 -10.402  15.862  0.00  0.00    +0.000 A 
ATOM      5  C   UNL     1     -12.550  -9.305  15.375  0.00  0.00    +0.000 A 
ATOM      6  H   UNL     1     -11.396 -11.960  17.290  0.00  0.00    +0.000 HD
ATOM      7  H   UNL     1      -9.654 -10.599  15.787  0.00  0.00    +0.000 HD
ATOM      8  H   UNL     1     -13.190  -8.565  14.912  0.00  0.00    +0.000 HD
ENDROOT
TORSDOF 0
ENDMDL
MODEL 10
REMARK VINA RESULT:    -2.052      2.402      3.008
REMARK INTER + INTRA:          -2.052
REMARK INTER:                  -2.052
REMARK INTRA:                   0.000
REMARK UNBOUND:                 0.000
REMARK  Name = 9256
REMARK  0 active torsions:
REMARK  status: ('A' for Active; 'I' for Inactive)
REMARK                            x       y       z     vdW  Elec       q    Type
REMARK                         _______ _______ _______ _____ _____    ______ ____
ROOT
ATOM      1  S   UNL     1       6.445   9.363   0.002  0.00  0.00    +0.000 S 
ATOM      2  N   UNL     1       5.658   8.160   2.151  0.00  0.00    +0.000 NA
ATOM      3  C   UNL     1       4.959   9.859   0.702  0.00  0.00    +0.000 A 
ATOM      4  C   UNL     1       4.707   9.110   1.832  0.00  0.00    +0.000 A 
ATOM      5  C   UNL     1       6.619   8.204   1.256  0.00  0.00    +0.000 A 
ATOM      6  H   UNL     1       4.361  10.647   0.267  0.00  0.00    +0.000 HD
ATOM      7  H   UNL     1       3.836   9.218   2.465  0.00  0.00    +0.000 HD
ATOM      8  H   UNL     1       7.478   7.547   1.301  0.00  0.00    +0.000 HD
ENDROOT
TORSDOF 0
ENDMDL
