MODEL 1
REMARK VINA RESULT:    -5.393      0.000      0.000
REMARK INTER + INTRA:          -6.540
REMARK INTER:                  -6.332
REMARK INTRA:                  -0.207
REMARK UNBOUND:                -0.201
REMARK  Name = 6989
REMARK  5 active torsions:
REMARK  status: ('A' for Active; 'I' for Inactive)
REMARK    1  A    between atoms: O_1  and  C_6
REMARK    2  A    between atoms: C_2  and  C_3
REMARK    3  A    between atoms: C_2  and  C_4
REMARK    4  A    between atoms: C_2  and  C_5
REMARK    5  A    between atoms: C_8  and  C_11
REMARK                            x       y       z     vdW  Elec       q    Type
REMARK                         _______ _______ _______ _____ _____    ______ ____
ROOT
ATOM      1  C   UNL     1       5.685   8.591   1.971  0.00  0.00    +0.000 A 
ATOM      2  C   UNL     1       6.265   8.920   0.746  0.00  0.00    +0.000 A 
ATOM      3  C   UNL     1       4.428   9.098   2.305  0.00  0.00    +0.000 A 
ATOM      4  C   UNL     1       4.333  10.260   0.190  0.00  0.00    +0.000 A 
ATOM      5  C   UNL     1       5.590   9.754  -0.145  0.00  0.00    +0.000 A 
ATOM      6  C   UNL     1       3.753   9.931   1.414  0.00  0.00    +0.000 A 
ATOM      7  H   UNL     1       3.955   8.855   3.253  0.00  0.00    +0.000 HD
ATOM      8  H   UNL     1       6.047  10.005  -1.099  0.00  0.00    +0.000 HD
ATOM      9  H   UNL     1       2.774  10.318   1.685  0.00  0.00    +0.000 HD
ENDROOT
BRANCH   4  10
ATOM     10  C   UNL     1       3.611  11.152  -0.763  0.00  0.00    +0.000 C 
ATOM     11  H   UNL     1       4.129  12.110  -0.875  0.00  0.00    +0.000 HD
ATOM     12  H   UNL     1       3.540  10.673  -1.744  0.00  0.00    +0.000 HD
ATOM     13  H   UNL     1       2.600  11.375  -0.407  0.00  0.00    +0.000 HD
ENDBRANCH   4  10
BRANCH   2  14
ATOM     14  O   UNL     1       7.492   8.434   0.404  0.00  0.00    +0.000 OA
ATOM     15  H   UNL     1       8.045   9.171   0.095  0.00  0.00    +0.000 HD
ENDBRANCH   2  14
BRANCH   1  16
ATOM     16  C   UNL     1       6.393   7.700   2.936  0.00  0.00    +0.000 C 
ATOM     17  H   UNL     1       7.117   7.058   2.427  0.00  0.00    +0.000 HD
BRANCH  16  18
ATOM     18  C   UNL     1       5.437   6.723   3.644  0.00  0.00    +0.000 C 
ATOM     19  H   UNL     1       4.445   6.709   3.181  0.00  0.00    +0.000 HD
ATOM     20  H   UNL     1       5.307   7.004   4.695  0.00  0.00    +0.000 HD
ATOM     21  H   UNL     1       5.834   5.702   3.616  0.00  0.00    +0.000 HD
ENDBRANCH  16  18
BRANCH  16  22
ATOM     22  C   UNL     1       7.200   8.491   3.983  0.00  0.00    +0.000 C 
ATOM     23  H   UNL     1       7.723   9.334   3.515  0.00  0.00    +0.000 HD
ATOM     24  H   UNL     1       7.953   7.849   4.454  0.00  0.00    +0.000 HD
ATOM     25  H   UNL     1       6.563   8.891   4.778  0.00  0.00    +0.000 HD
ENDBRANCH  16  22
ENDBRANCH   1  16
TORSDOF 5
ENDMDL
MODEL 2
REMARK VINA RESULT:    -5.288     27.894     28.856
REMARK INTER + INTRA:          -6.417
REMARK INTER:                  -6.209
REMARK INTRA:                  -0.208
REMARK UNBOUND:                -0.201
REMARK  Name = 6989
REMARK  5 active torsions:
REMARK  status: ('A' for Active; 'I' for Inactive)
REMARK    1  A    between atoms: O_1  and  C_6
REMARK    2  A    between atoms: C_2  and  C_3
REMARK    3  A    between atoms: C_2  and  C_4
REMARK    4  A    between atoms: C_2  and  C_5
REMARK    5  A    between atoms: C_8  and  C_11
REMARK                            x       y       z     vdW  Elec       q    Type
REMARK                         _______ _______ _______ _____ _____    ______ ____
ROOT
ATOM      1  C   UNL     1     -19.508  -4.625   3.558  0.00  0.00    +0.000 A 
ATOM      2  C   UNL     1     -19.510  -4.619   4.953  0.00  0.00    +0.000 A 
ATOM      3  C   UNL     1     -20.326  -3.739   2.856  0.00  0.00    +0.000 A 
ATOM      4  C   UNL     1     -21.147  -2.842   4.943  0.00  0.00    +0.000 A 
ATOM      5  C   UNL     1     -20.330  -3.728   5.646  0.00  0.00    +0.000 A 
ATOM      6  C   UNL     1     -21.144  -2.848   3.549  0.00  0.00    +0.000 A 
ATOM      7  H   UNL     1     -20.340  -3.724   1.770  0.00  0.00    +0.000 HD
ATOM      8  H   UNL     1     -20.325  -3.727   6.733  0.00  0.00    +0.000 HD
ATOM      9  H   UNL     1     -21.776  -2.161   2.990  0.00  0.00    +0.000 HD
ENDROOT
BRANCH   4  10
ATOM     10  C   UNL     1     -22.023  -1.889   5.684  0.00  0.00    +0.000 C 
ATOM     11  H   UNL     1     -21.587  -1.625   6.653  0.00  0.00    +0.000 HD
ATOM     12  H   UNL     1     -22.162  -0.975   5.099  0.00  0.00    +0.000 HD
ATOM     13  H   UNL     1     -23.006  -2.329   5.885  0.00  0.00    +0.000 HD
ENDBRANCH   4  10
BRANCH   2  14
ATOM     14  O   UNL     1     -18.718  -5.478   5.654  0.00  0.00    +0.000 OA
ATOM     15  H   UNL     1     -19.165  -6.339   5.714  0.00  0.00    +0.000 HD
ENDBRANCH   2  14
BRANCH   1  16
ATOM     16  C   UNL     1     -18.638  -5.572   2.801  0.00  0.00    +0.000 C 
ATOM     17  H   UNL     1     -18.063  -6.211   3.477  0.00  0.00    +0.000 HD
BRANCH  16  18
ATOM     18  C   UNL     1     -17.575  -4.845   1.956  0.00  0.00    +0.000 C 
ATOM     19  H   UNL     1     -17.361  -3.842   2.338  0.00  0.00    +0.000 HD
ATOM     20  H   UNL     1     -17.913  -4.740   0.919  0.00  0.00    +0.000 HD
ATOM     21  H   UNL     1     -16.634  -5.408   1.947  0.00  0.00    +0.000 HD
ENDBRANCH  16  18
BRANCH  16  22
ATOM     22  C   UNL     1     -19.448  -6.530   1.909  0.00  0.00    +0.000 C 
ATOM     23  H   UNL     1     -20.328  -6.907   2.443  0.00  0.00    +0.000 HD
ATOM     24  H   UNL     1     -18.838  -7.392   1.616  0.00  0.00    +0.000 HD
ATOM     25  H   UNL     1     -19.795  -6.044   0.991  0.00  0.00    +0.000 HD
ENDBRANCH  16  22
ENDBRANCH   1  16
TORSDOF 5
ENDMDL
MODEL 3
REMARK VINA RESULT:    -4.847     28.149     29.014
REMARK INTER + INTRA:          -5.898
REMARK INTER:                  -5.689
REMARK INTRA:                  -0.209
REMARK UNBOUND:                -0.201
REMARK  Name = 6989
REMARK  5 active torsions:
REMARK  status: ('A' for Active; 'I' for Inactive)
REMARK    1  A    between atoms: O_1  and  C_6
REMARK    2  A    between atoms: C_2  and  C_3
REMARK    3  A    between atoms: C_2  and  C_4
REMARK    4  A    between atoms: C_2  and  C_5
REMARK    5  A    between atoms: C_8  and  C_11
REMARK                            x       y       z     vdW  Elec       q    Type
REMARK                         _______ _______ _______ _____ _____    ______ ____
ROOT
ATOM      1  C   UNL     1     -20.657  -2.678   5.273  0.00  0.00    +0.000 A 
ATOM      2  C   UNL     1     -20.105  -3.887   4.849  0.00  0.00    +0.000 A 
ATOM      3  C   UNL     1     -21.274  -1.832   4.350  0.00  0.00    +0.000 A 
ATOM      4  C   UNL     1     -20.788  -3.405   2.582  0.00  0.00    +0.000 A 
ATOM      5  C   UNL     1     -20.171  -4.251   3.504  0.00  0.00    +0.000 A 
ATOM      6  C   UNL     1     -21.339  -2.196   3.006  0.00  0.00    +0.000 A 
ATOM      7  H   UNL     1     -21.711  -0.886   4.656  0.00  0.00    +0.000 HD
ATOM      8  H   UNL     1     -19.741  -5.195   3.181  0.00  0.00    +0.000 HD
ATOM      9  H   UNL     1     -21.825  -1.530   2.297  0.00  0.00    +0.000 HD
ENDROOT
BRANCH   4  10
ATOM     10  C   UNL     1     -20.858  -3.794   1.144  0.00  0.00    +0.000 C 
ATOM     11  H   UNL     1     -21.898  -3.881   0.810  0.00  0.00    +0.000 HD
ATOM     12  H   UNL     1     -20.351  -3.045   0.528  0.00  0.00    +0.000 HD
ATOM     13  H   UNL     1     -20.385  -4.767   0.974  0.00  0.00    +0.000 HD
ENDBRANCH   4  10
BRANCH   2  14
ATOM     14  O   UNL     1     -19.499  -4.725   5.736  0.00  0.00    +0.000 OA
ATOM     15  H   UNL     1     -20.172  -5.083   6.339  0.00  0.00    +0.000 HD
ENDBRANCH   2  14
BRANCH   1  16
ATOM     16  C   UNL     1     -20.596  -2.273   6.708  0.00  0.00    +0.000 C 
ATOM     17  H   UNL     1     -19.842  -2.850   7.252  0.00  0.00    +0.000 HD
BRANCH  16  18
ATOM     18  C   UNL     1     -21.914  -2.552   7.453  0.00  0.00    +0.000 C 
ATOM     19  H   UNL     1     -22.258  -3.581   7.310  0.00  0.00    +0.000 HD
ATOM     20  H   UNL     1     -22.706  -1.885   7.098  0.00  0.00    +0.000 HD
ATOM     21  H   UNL     1     -21.793  -2.387   8.530  0.00  0.00    +0.000 HD
ENDBRANCH  16  18
BRANCH  16  22
ATOM     22  C   UNL     1     -20.198  -0.796   6.885  0.00  0.00    +0.000 C 
ATOM     23  H   UNL     1     -19.259  -0.580   6.361  0.00  0.00    +0.000 HD
ATOM     24  H   UNL     1     -20.053  -0.561   7.946  0.00  0.00    +0.000 HD
ATOM     25  H   UNL     1     -20.963  -0.114   6.497  0.00  0.00    +0.000 HD
ENDBRANCH  16  22
ENDBRANCH   1  16
TORSDOF 5
ENDMDL
MODEL 4
REMARK VINA RESULT:    -4.777     22.398     23.167
REMARK INTER + INTRA:          -5.816
REMARK INTER:                  -5.608
REMARK INTRA:                  -0.208
REMARK UNBOUND:                -0.201
REMARK  Name = 6989
REMARK  5 active torsions:
REMARK  status: ('A' for Active; 'I' for Inactive)
REMARK    1  A    between atoms: O_1  and  C_6
REMARK    2  A    between atoms: C_2  and  C_3
REMARK    3  A    between atoms: C_2  and  C_4
REMARK    4  A    between atoms: C_2  and  C_5
REMARK    5  A    between atoms: C_8  and  C_11
REMARK                            x       y       z     vdW  Elec       q    Type
REMARK                         _______ _______ _______ _____ _____    ______ ____
ROOT
ATOM      1  C   UNL     1     -13.285  -3.692  -4.362  0.00  0.00    +0.000 A 
ATOM      2  C   UNL     1     -13.121  -3.300  -3.033  0.00  0.00    +0.000 A 
ATOM      3  C   UNL     1     -13.314  -2.731  -5.374  0.00  0.00    +0.000 A 
ATOM      4  C   UNL     1     -13.014  -0.988  -3.728  0.00  0.00    +0.000 A 
ATOM      5  C   UNL     1     -12.985  -1.948  -2.716  0.00  0.00    +0.000 A 
ATOM      6  C   UNL     1     -13.178  -1.380  -5.056  0.00  0.00    +0.000 A 
ATOM      7  H   UNL     1     -13.440  -3.011  -6.415  0.00  0.00    +0.000 HD
ATOM      8  H   UNL     1     -12.855  -1.649  -1.679  0.00  0.00    +0.000 HD
ATOM      9  H   UNL     1     -13.200  -0.641  -5.853  0.00  0.00    +0.000 HD
ENDROOT
BRANCH   4  10
ATOM     10  C   UNL     1     -12.869   0.457  -3.389  0.00  0.00    +0.000 C 
ATOM     11  H   UNL     1     -11.933   0.863  -3.787  0.00  0.00    +0.000 HD
ATOM     12  H   UNL     1     -13.706   1.026  -3.805  0.00  0.00    +0.000 HD
ATOM     13  H   UNL     1     -12.847   0.609  -2.304  0.00  0.00    +0.000 HD
ENDBRANCH   4  10
BRANCH   2  14
ATOM     14  O   UNL     1     -13.091  -4.225  -2.033  0.00  0.00    +0.000 OA
ATOM     15  H   UNL     1     -13.664  -4.970  -2.279  0.00  0.00    +0.000 HD
ENDBRANCH   2  14
BRANCH   1  16
ATOM     16  C   UNL     1     -13.432  -5.133  -4.720  0.00  0.00    +0.000 C 
ATOM     17  H   UNL     1     -13.484  -5.761  -3.825  0.00  0.00    +0.000 HD
BRANCH  16  18
ATOM     18  C   UNL     1     -12.219  -5.670  -5.501  0.00  0.00    +0.000 C 
ATOM     19  H   UNL     1     -12.256  -5.393  -6.560  0.00  0.00    +0.000 HD
ATOM     20  H   UNL     1     -12.180  -6.764  -5.447  0.00  0.00    +0.000 HD
ATOM     21  H   UNL     1     -11.284  -5.279  -5.085  0.00  0.00    +0.000 HD
ENDBRANCH  16  18
BRANCH  16  22
ATOM     22  C   UNL     1     -14.726  -5.415  -5.504  0.00  0.00    +0.000 C 
ATOM     23  H   UNL     1     -14.544  -6.138  -6.308  0.00  0.00    +0.000 HD
ATOM     24  H   UNL     1     -15.108  -4.494  -5.961  0.00  0.00    +0.000 HD
ATOM     25  H   UNL     1     -15.517  -5.818  -4.863  0.00  0.00    +0.000 HD
ENDBRANCH  16  22
ENDBRANCH   1  16
TORSDOF 5
ENDMDL
MODEL 5
REMARK VINA RESULT:    -4.771     13.803     15.093
REMARK INTER + INTRA:          -5.809
REMARK INTER:                  -5.600
REMARK INTRA:                  -0.209
REMARK UNBOUND:                -0.201
REMARK  Name = 6989
REMARK  5 active torsions:
REMARK  status: ('A' for Active; 'I' for Inactive)
REMARK    1  A    between atoms: O_1  and  C_6
REMARK    2  A    between atoms: C_2  and  C_3
REMARK    3  A    between atoms: C_2  and  C_4
REMARK    4  A    between atoms: C_2  and  C_5
REMARK    5  A    between atoms: C_8  and  C_11
REMARK                            x       y       z     vdW  Elec       q    Type
REMARK                         _______ _______ _______ _____ _____    ______ ____
ROOT
ATOM      1  C   UNL     1      -8.444  10.988   7.283  0.00  0.00    +0.000 A 
ATOM      2  C   UNL     1      -7.857  12.055   7.964  0.00  0.00    +0.000 A 
ATOM      3  C   UNL     1      -8.298  10.879   5.899  0.00  0.00    +0.000 A 
ATOM      4  C   UNL     1      -6.978  12.903   5.879  0.00  0.00    +0.000 A 
ATOM      5  C   UNL     1      -7.124  13.013   7.263  0.00  0.00    +0.000 A 
ATOM      6  C   UNL     1      -7.565  11.836   5.199  0.00  0.00    +0.000 A 
ATOM      7  H   UNL     1      -8.744  10.057   5.347  0.00  0.00    +0.000 HD
ATOM      8  H   UNL     1      -6.668  13.840   7.799  0.00  0.00    +0.000 HD
ATOM      9  H   UNL     1      -7.456  11.739   4.121  0.00  0.00    +0.000 HD
ENDROOT
BRANCH   4  10
ATOM     10  C   UNL     1      -6.194  13.926   5.129  0.00  0.00    +0.000 C 
ATOM     11  H   UNL     1      -6.201  14.889   5.651  0.00  0.00    +0.000 HD
ATOM     12  H   UNL     1      -5.158  13.595   5.014  0.00  0.00    +0.000 HD
ATOM     13  H   UNL     1      -6.619  14.099   4.134  0.00  0.00    +0.000 HD
ENDBRANCH   4  10
BRANCH   2  14
ATOM     14  O   UNL     1      -7.991  12.177   9.315  0.00  0.00    +0.000 OA
ATOM     15  H   UNL     1      -8.545  12.952   9.506  0.00  0.00    +0.000 HD
ENDBRANCH   2  14
BRANCH   1  16
ATOM     16  C   UNL     1      -9.232   9.955   8.017  0.00  0.00    +0.000 C 
ATOM     17  H   UNL     1      -9.486  10.293   9.027  0.00  0.00    +0.000 HD
BRANCH  16  18
ATOM     18  C   UNL     1      -8.438   8.653   8.231  0.00  0.00    +0.000 C 
ATOM     19  H   UNL     1      -7.393   8.847   8.493  0.00  0.00    +0.000 HD
ATOM     20  H   UNL     1      -8.444   8.045   7.320  0.00  0.00    +0.000 HD
ATOM     21  H   UNL     1      -8.880   8.056   9.037  0.00  0.00    +0.000 HD
ENDBRANCH  16  18
BRANCH  16  22
ATOM     22  C   UNL     1     -10.574   9.642   7.331  0.00  0.00    +0.000 C 
ATOM     23  H   UNL     1     -11.411   9.816   8.017  0.00  0.00    +0.000 HD
ATOM     24  H   UNL     1     -10.610   8.593   7.017  0.00  0.00    +0.000 HD
ATOM     25  H   UNL     1     -10.735  10.259   6.441  0.00  0.00    +0.000 HD
ENDBRANCH  16  22
ENDBRANCH   1  16
TORSDOF 5
ENDMDL
MODEL 6
REMARK VINA RESULT:    -4.766     14.171     15.472
REMARK INTER + INTRA:          -5.803
REMARK INTER:                  -5.595
REMARK INTRA:                  -0.208
REMARK UNBOUND:                -0.201
REMARK  Name = 6989
REMARK  5 active torsions:
REMARK  status: ('A' for Active; 'I' for Inactive)
REMARK    1  A    between atoms: O_1  and  C_6
REMARK    2  A    between atoms: C_2  and  C_3
REMARK    3  A    between atoms: C_2  and  C_4
REMARK    4  A    between atoms: C_2  and  C_5
REMARK    5  A    between atoms: C_8  and  C_11
REMARK                            x       y       z     vdW  Elec       q    Type
REMARK                         _______ _______ _______ _____ _____    ______ ____
ROOT
ATOM      1  C   UNL     1      -2.812   7.839 -11.309  0.00  0.00    +0.000 A 
ATOM      2  C   UNL     1      -1.527   7.613 -11.800  0.00  0.00    +0.000 A 
ATOM      3  C   UNL     1      -3.428   9.075 -11.513  0.00  0.00    +0.000 A 
ATOM      4  C   UNL     1      -1.472   9.855 -12.697  0.00  0.00    +0.000 A 
ATOM      5  C   UNL     1      -0.856   8.620 -12.494  0.00  0.00    +0.000 A 
ATOM      6  C   UNL     1      -2.758  10.082 -12.207  0.00  0.00    +0.000 A 
ATOM      7  H   UNL     1      -4.429   9.275 -11.142  0.00  0.00    +0.000 HD
ATOM      8  H   UNL     1       0.145   8.436 -12.875  0.00  0.00    +0.000 HD
ATOM      9  H   UNL     1      -3.249  11.040 -12.361  0.00  0.00    +0.000 HD
ENDROOT
BRANCH   4  10
ATOM     10  C   UNL     1      -0.756  10.933 -13.439  0.00  0.00    +0.000 C 
ATOM     11  H   UNL     1      -1.263  11.167 -14.381  0.00  0.00    +0.000 HD
ATOM     12  H   UNL     1      -0.708  11.840 -12.829  0.00  0.00    +0.000 HD
ATOM     13  H   UNL     1       0.265  10.627 -13.693  0.00  0.00    +0.000 HD
ENDBRANCH   4  10
BRANCH   2  14
ATOM     14  O   UNL     1      -0.910   6.412 -11.610  0.00  0.00    +0.000 OA
ATOM     15  H   UNL     1      -1.173   6.059 -10.743  0.00  0.00    +0.000 HD
ENDBRANCH   2  14
BRANCH   1  16
ATOM     16  C   UNL     1      -3.544   6.773 -10.565  0.00  0.00    +0.000 C 
ATOM     17  H   UNL     1      -3.143   5.781 -10.794  0.00  0.00    +0.000 HD
BRANCH  16  18
ATOM     18  C   UNL     1      -5.030   6.692 -10.964  0.00  0.00    +0.000 C 
ATOM     19  H   UNL     1      -5.694   6.891 -10.117  0.00  0.00    +0.000 HD
ATOM     20  H   UNL     1      -5.272   5.695 -11.348  0.00  0.00    +0.000 HD
ATOM     21  H   UNL     1      -5.261   7.420 -11.750  0.00  0.00    +0.000 HD
ENDBRANCH  16  18
BRANCH  16  22
ATOM     22  C   UNL     1      -3.421   6.931  -9.039  0.00  0.00    +0.000 C 
ATOM     23  H   UNL     1      -2.368   6.959  -8.735  0.00  0.00    +0.000 HD
ATOM     24  H   UNL     1      -3.897   6.088  -8.524  0.00  0.00    +0.000 HD
ATOM     25  H   UNL     1      -3.898   7.849  -8.680  0.00  0.00    +0.000 HD
ENDBRANCH  16  22
ENDBRANCH   1  16
TORSDOF 5
ENDMDL
MODEL 7
REMARK VINA RESULT:    -4.740     17.641     18.713
REMARK INTER + INTRA:          -5.772
REMARK INTER:                  -5.571
REMARK INTRA:                  -0.201
REMARK UNBOUND:                -0.201
REMARK  Name = 6989
REMARK  5 active torsions:
REMARK  status: ('A' for Active; 'I' for Inactive)
REMARK    1  A    between atoms: O_1  and  C_6
REMARK    2  A    between atoms: C_2  and  C_3
REMARK    3  A    between atoms: C_2  and  C_4
REMARK    4  A    between atoms: C_2  and  C_5
REMARK    5  A    between atoms: C_8  and  C_11
REMARK                            x       y       z     vdW  Elec       q    Type
REMARK                         _______ _______ _______ _____ _____    ______ ____
ROOT
ATOM      1  C   UNL     1       2.472  -0.556 -13.525  0.00  0.00    +0.000 A 
ATOM      2  C   UNL     1       3.165  -1.766 -13.529  0.00  0.00    +0.000 A 
ATOM      3  C   UNL     1       2.892   0.490 -14.349  0.00  0.00    +0.000 A 
ATOM      4  C   UNL     1       4.696  -0.886 -15.178  0.00  0.00    +0.000 A 
ATOM      5  C   UNL     1       4.277  -1.932 -14.355  0.00  0.00    +0.000 A 
ATOM      6  C   UNL     1       4.003   0.325 -15.174  0.00  0.00    +0.000 A 
ATOM      7  H   UNL     1       2.368   1.442 -14.364  0.00  0.00    +0.000 HD
ATOM      8  H   UNL     1       4.811  -2.878 -14.355  0.00  0.00    +0.000 HD
ATOM      9  H   UNL     1       4.319   1.146 -15.812  0.00  0.00    +0.000 HD
ENDROOT
BRANCH   4  10
ATOM     10  C   UNL     1       5.885  -1.063 -16.061  0.00  0.00    +0.000 C 
ATOM     11  H   UNL     1       6.792  -0.678 -15.583  0.00  0.00    +0.000 HD
ATOM     12  H   UNL     1       6.029  -2.123 -16.288  0.00  0.00    +0.000 HD
ATOM     13  H   UNL     1       5.764  -0.516 -17.002  0.00  0.00    +0.000 HD
ENDBRANCH   4  10
BRANCH   2  14
ATOM     14  O   UNL     1       2.769  -2.798 -12.732  0.00  0.00    +0.000 OA
ATOM     15  H   UNL     1       3.556  -3.290 -12.443  0.00  0.00    +0.000 HD
ENDBRANCH   2  14
BRANCH   1  16
ATOM     16  C   UNL     1       1.281  -0.361 -12.648  0.00  0.00    +0.000 C 
ATOM     17  H   UNL     1       1.326  -1.008 -11.767  0.00  0.00    +0.000 HD
BRANCH  16  18
ATOM     18  C   UNL     1      -0.034  -0.750 -13.349  0.00  0.00    +0.000 C 
ATOM     19  H   UNL     1      -0.480   0.093 -13.886  0.00  0.00    +0.000 HD
ATOM     20  H   UNL     1      -0.770  -1.103 -12.618  0.00  0.00    +0.000 HD
ATOM     21  H   UNL     1       0.134  -1.557 -14.072  0.00  0.00    +0.000 HD
ENDBRANCH  16  18
BRANCH  16  22
ATOM     22  C   UNL     1       1.179   1.076 -12.106  0.00  0.00    +0.000 C 
ATOM     23  H   UNL     1       0.989   1.072 -11.027  0.00  0.00    +0.000 HD
ATOM     24  H   UNL     1       0.354   1.612 -12.590  0.00  0.00    +0.000 HD
ATOM     25  H   UNL     1       2.094   1.649 -12.284  0.00  0.00    +0.000 HD
ENDBRANCH  16  22
ENDBRANCH   1  16
TORSDOF 5
ENDMDL
MODEL 8
REMARK VINA RESULT:    -4.717     28.537     29.185
REMARK INTER + INTRA:          -5.745
REMARK INTER:                  -5.535
REMARK INTRA:                  -0.209
REMARK UNBOUND:                -0.201
REMARK  Name = 6989
REMARK  5 active torsions:
REMARK  status: ('A' for Active; 'I' for Inactive)
REMARK    1  A    between atoms: O_1  and  C_6
REMARK    2  A    between atoms: C_2  and  C_3
REMARK    3  A    between atoms: C_2  and  C_4
REMARK    4  A    between atoms: C_2  and  C_5
REMARK    5  A    between atoms: C_8  and  C_11
REMARK                            x       y       z     vdW  Elec       q    Type
REMARK                         _______ _______ _______ _____ _____    ______ ____
ROOT
ATOM      1  C   UNL     1     -20.963  -3.036   4.044  0.00  0.00    +0.000 A 
ATOM      2  C   UNL     1     -21.086  -1.647   4.000  0.00  0.00    +0.000 A 
ATOM      3  C   UNL     1     -20.771  -3.680   5.268  0.00  0.00    +0.000 A 
ATOM      4  C   UNL     1     -20.827  -1.546   6.400  0.00  0.00    +0.000 A 
ATOM      5  C   UNL     1     -21.018  -0.902   5.177  0.00  0.00    +0.000 A 
ATOM      6  C   UNL     1     -20.703  -2.935   6.444  0.00  0.00    +0.000 A 
ATOM      7  H   UNL     1     -20.674  -4.760   5.328  0.00  0.00    +0.000 HD
ATOM      8  H   UNL     1     -21.117   0.180   5.136  0.00  0.00    +0.000 HD
ATOM      9  H   UNL     1     -20.556  -3.448   7.392  0.00  0.00    +0.000 HD
ENDROOT
BRANCH   4  10
ATOM     10  C   UNL     1     -20.754  -0.750   7.659  0.00  0.00    +0.000 C 
ATOM     11  H   UNL     1     -19.748  -0.787   8.091  0.00  0.00    +0.000 HD
ATOM     12  H   UNL     1     -21.013   0.294   7.458  0.00  0.00    +0.000 HD
ATOM     13  H   UNL     1     -21.441  -1.142   8.416  0.00  0.00    +0.000 HD
ENDBRANCH   4  10
BRANCH   2  14
ATOM     14  O   UNL     1     -21.273  -1.002   2.814  0.00  0.00    +0.000 OA
ATOM     15  H   UNL     1     -21.287  -1.660   2.099  0.00  0.00    +0.000 HD
ENDBRANCH   2  14
BRANCH   1  16
ATOM     16  C   UNL     1     -21.033  -3.848   2.795  0.00  0.00    +0.000 C 
ATOM     17  H   UNL     1     -21.443  -3.266   1.964  0.00  0.00    +0.000 HD
BRANCH  16  18
ATOM     18  C   UNL     1     -21.983  -5.053   2.930  0.00  0.00    +0.000 C 
ATOM     19  H   UNL     1     -22.894  -4.928   2.336  0.00  0.00    +0.000 HD
ATOM     20  H   UNL     1     -22.284  -5.190   3.975  0.00  0.00    +0.000 HD
ATOM     21  H   UNL     1     -21.491  -5.975   2.599  0.00  0.00    +0.000 HD
ENDBRANCH  16  18
BRANCH  16  22
ATOM     22  C   UNL     1     -19.647  -4.326   2.326  0.00  0.00    +0.000 C 
ATOM     23  H   UNL     1     -19.450  -5.348   2.671  0.00  0.00    +0.000 HD
ATOM     24  H   UNL     1     -18.859  -3.678   2.729  0.00  0.00    +0.000 HD
ATOM     25  H   UNL     1     -19.555  -4.317   1.235  0.00  0.00    +0.000 HD
ENDBRANCH  16  22
ENDBRANCH   1  16
TORSDOF 5
ENDMDL
MODEL 9
REMARK VINA RESULT:    -4.619     20.980     22.018
REMARK INTER + INTRA:          -5.630
REMARK INTER:                  -5.505
REMARK INTRA:                  -0.124
REMARK UNBOUND:                -0.201
REMARK  Name = 6989
REMARK  5 active torsions:
REMARK  status: ('A' for Active; 'I' for Inactive)
REMARK    1  A    between atoms: O_1  and  C_6
REMARK    2  A    between atoms: C_2  and  C_3
REMARK    3  A    between atoms: C_2  and  C_4
REMARK    4  A    between atoms: C_2  and  C_5
REMARK    5  A    between atoms: C_8  and  C_11
REMARK                            x       y       z     vdW  Elec       q    Type
REMARK                         _______ _______ _______ _____ _____    ______ ____
ROOT
ATOM      1  C   UNL     1      -9.405   9.901  18.220  0.00  0.00    +0.000 A 
ATOM      2  C   UNL     1      -8.482   9.540  17.239  0.00  0.00    +0.000 A 
ATOM      3  C   UNL     1      -9.422  11.207  18.715  0.00  0.00    +0.000 A 
ATOM      4  C   UNL     1      -7.593  11.787  17.247  0.00  0.00    +0.000 A 
ATOM      5  C   UNL     1      -7.575  10.482  16.752  0.00  0.00    +0.000 A 
ATOM      6  C   UNL     1      -8.516  12.148  18.228  0.00  0.00    +0.000 A 
ATOM      7  H   UNL     1     -10.132  11.512  19.478  0.00  0.00    +0.000 HD
ATOM      8  H   UNL     1      -6.860  10.195  15.986  0.00  0.00    +0.000 HD
ATOM      9  H   UNL     1      -8.540  13.162  18.620  0.00  0.00    +0.000 HD
ENDROOT
BRANCH   4  10
ATOM     10  C   UNL     1      -6.623  12.794  16.727  0.00  0.00    +0.000 C 
ATOM     11  H   UNL     1      -6.490  13.617  17.439  0.00  0.00    +0.000 HD
ATOM     12  H   UNL     1      -5.652  12.323  16.548  0.00  0.00    +0.000 HD
ATOM     13  H   UNL     1      -6.977  13.237  15.790  0.00  0.00    +0.000 HD
ENDBRANCH   4  10
BRANCH   2  14
ATOM     14  O   UNL     1      -8.452   8.271  16.744  0.00  0.00    +0.000 OA
ATOM     15  H   UNL     1      -7.891   7.724  17.320  0.00  0.00    +0.000 HD
ENDBRANCH   2  14
BRANCH   1  16
ATOM     16  C   UNL     1     -10.382   8.907  18.752  0.00  0.00    +0.000 C 
ATOM     17  H   UNL     1     -10.779   8.273  17.953  0.00  0.00    +0.000 HD
BRANCH  16  18
ATOM     18  C   UNL     1     -11.624   9.576  19.370  0.00  0.00    +0.000 C 
ATOM     19  H   UNL     1     -11.356  10.364  20.081  0.00  0.00    +0.000 HD
ATOM     20  H   UNL     1     -12.232   8.838  19.906  0.00  0.00    +0.000 HD
ATOM     21  H   UNL     1     -12.251  10.025  18.591  0.00  0.00    +0.000 HD
ENDBRANCH  16  18
BRANCH  16  22
ATOM     22  C   UNL     1      -9.745   7.945  19.771  0.00  0.00    +0.000 C 
ATOM     23  H   UNL     1      -9.207   8.501  20.547  0.00  0.00    +0.000 HD
ATOM     24  H   UNL     1      -9.028   7.280  19.276  0.00  0.00    +0.000 HD
ATOM     25  H   UNL     1     -10.492   7.315  20.266  0.00  0.00    +0.000 HD
ENDBRANCH  16  22
ENDBRANCH   1  16
TORSDOF 5
ENDMDL
MODEL 10
REMARK VINA RESULT:    -4.479     14.232     15.728
REMARK INTER + INTRA:          -5.466
REMARK INTER:                  -5.260
REMARK INTRA:                  -0.205
REMARK UNBOUND:                -0.201
REMARK  Name = 6989
REMARK  5 active torsions:
REMARK  status: ('A' for Active; 'I' for Inactive)
REMARK    1  A    between atoms: O_1  and  C_6
REMARK    2  A    between atoms: C_2  and  C_3
REMARK    3  A    between atoms: C_2  and  C_4
REMARK    4  A    between atoms: C_2  and  C_5
REMARK    5  A    between atoms: C_8  and  C_11
REMARK                            x       y       z     vdW  Elec       q    Type
REMARK                         _______ _______ _______ _____ _____    ______ ____
ROOT
ATOM      1  C   UNL     1      -1.959   8.884 -12.048  0.00  0.00    +0.000 A 
ATOM      2  C   UNL     1      -2.036   7.493 -12.124  0.00  0.00    +0.000 A 
ATOM      3  C   UNL     1      -2.394   9.543 -10.897  0.00  0.00    +0.000 A 
ATOM      4  C   UNL     1      -2.981   7.422  -9.902  0.00  0.00    +0.000 A 
ATOM      5  C   UNL     1      -2.546   6.761 -11.052  0.00  0.00    +0.000 A 
ATOM      6  C   UNL     1      -2.904   8.812  -9.825  0.00  0.00    +0.000 A 
ATOM      7  H   UNL     1      -2.344  10.625 -10.813  0.00  0.00    +0.000 HD
ATOM      8  H   UNL     1      -2.601   5.678 -11.117  0.00  0.00    +0.000 HD
ATOM      9  H   UNL     1      -3.238   9.337  -8.933  0.00  0.00    +0.000 HD
ENDROOT
BRANCH   4  10
ATOM     10  C   UNL     1      -3.526   6.640  -8.755  0.00  0.00    +0.000 C 
ATOM     11  H   UNL     1      -3.744   7.292  -7.902  0.00  0.00    +0.000 HD
ATOM     12  H   UNL     1      -4.447   6.130  -9.053  0.00  0.00    +0.000 HD
ATOM     13  H   UNL     1      -2.806   5.891  -8.408  0.00  0.00    +0.000 HD
ENDBRANCH   4  10
BRANCH   2  14
ATOM     14  O   UNL     1      -1.616   6.833 -13.240  0.00  0.00    +0.000 OA
ATOM     15  H   UNL     1      -0.725   7.145 -13.472  0.00  0.00    +0.000 HD
ENDBRANCH   2  14
BRANCH   1  16
ATOM     16  C   UNL     1      -1.416   9.682 -13.186  0.00  0.00    +0.000 C 
ATOM     17  H   UNL     1      -0.725   9.089 -13.793  0.00  0.00    +0.000 HD
BRANCH  16  18
ATOM     18  C   UNL     1      -0.583  10.887 -12.713  0.00  0.00    +0.000 C 
ATOM     19  H   UNL     1       0.203  10.594 -12.009  0.00  0.00    +0.000 HD
ATOM     20  H   UNL     1      -1.220  11.623 -12.210  0.00  0.00    +0.000 HD
ATOM     21  H   UNL     1      -0.102  11.384 -13.563  0.00  0.00    +0.000 HD
ENDBRANCH  16  18
BRANCH  16  22
ATOM     22  C   UNL     1      -2.519  10.156 -14.150  0.00  0.00    +0.000 C 
ATOM     23  H   UNL     1      -2.143  10.199 -15.179  0.00  0.00    +0.000 HD
ATOM     24  H   UNL     1      -2.865  11.159 -13.876  0.00  0.00    +0.000 HD
ATOM     25  H   UNL     1      -3.389   9.491 -14.139  0.00  0.00    +0.000 HD
ENDBRANCH  16  22
ENDBRANCH   1  16
TORSDOF 5
ENDMDL
