MODEL 1
REMARK VINA RESULT:    -5.688      0.000      0.000
REMARK INTER + INTRA:          -6.662
REMARK INTER:                  -6.516
REMARK INTRA:                  -0.147
REMARK UNBOUND:                -0.143
REMARK  Name = 444539
REMARK  3 active torsions:
REMARK  status: ('A' for Active; 'I' for Inactive)
REMARK    1  A    between atoms: O_1  and  C_11
REMARK    2  A    between atoms: C_3  and  C_6
REMARK    3  A    between atoms: C_10  and  C_11
REMARK                            x       y       z     vdW  Elec       q    Type
REMARK                         _______ _______ _______ _____ _____    ______ ____
ROOT
ATOM      1  C   UNL     1       7.282   8.678   2.145  0.00  0.00    +0.000 A 
ATOM      2  C   UNL     1       6.338   7.651   2.093  0.00  0.00    +0.000 A 
ATOM      3  C   UNL     1       7.794   9.092   3.374  0.00  0.00    +0.000 A 
ATOM      4  C   UNL     1       5.906   7.041   3.270  0.00  0.00    +0.000 A 
ATOM      5  C   UNL     1       7.362   8.481   4.551  0.00  0.00    +0.000 A 
ATOM      6  C   UNL     1       6.419   7.455   4.500  0.00  0.00    +0.000 A 
ATOM      7  H   UNL     1       5.888   7.309   1.166  0.00  0.00    +0.000 HD
ATOM      8  H   UNL     1       8.531   9.889   3.434  0.00  0.00    +0.000 HD
ATOM      9  H   UNL     1       5.167   6.246   3.232  0.00  0.00    +0.000 HD
ATOM     10  H   UNL     1       7.762   8.803   5.509  0.00  0.00    +0.000 HD
ATOM     11  H   UNL     1       6.081   6.980   5.417  0.00  0.00    +0.000 HD
ENDROOT
BRANCH   1  12
ATOM     12  C   UNL     1       7.734   9.313   0.918  0.00  0.00    +0.000 C 
ATOM     13  C   UNL     1       6.927  10.016   0.129  0.00  0.00    +0.000 C 
ATOM     14  H   UNL     1       8.783   9.175   0.665  0.00  0.00    +0.000 HD
ATOM     15  H   UNL     1       5.870  10.165   0.307  0.00  0.00    +0.000 HD
BRANCH  13  17
ATOM     16  O   UNL     1       8.656  10.606  -1.445  0.00  0.00    +0.000 OA
ATOM     17  C   UNL     1       7.486  10.607  -1.106  0.00  0.00    +0.000 C 
BRANCH  17  18
ATOM     18  O   UNL     1       6.475  11.161  -1.816  0.00  0.00    +0.000 OA
ATOM     19  H   UNL     1       5.689  11.341  -1.257  0.00  0.00    +0.000 HD
ENDBRANCH  17  18
ENDBRANCH  13  17
ENDBRANCH   1  12
TORSDOF 3
ENDMDL
MODEL 2
REMARK VINA RESULT:    -5.661      2.698      3.223
REMARK INTER + INTRA:          -6.632
REMARK INTER:                  -6.466
REMARK INTRA:                  -0.166
REMARK UNBOUND:                -0.143
REMARK  Name = 444539
REMARK  3 active torsions:
REMARK  status: ('A' for Active; 'I' for Inactive)
REMARK    1  A    between atoms: O_1  and  C_11
REMARK    2  A    between atoms: C_3  and  C_6
REMARK    3  A    between atoms: C_10  and  C_11
REMARK                            x       y       z     vdW  Elec       q    Type
REMARK                         _______ _______ _______ _____ _____    ______ ____
ROOT
ATOM      1  C   UNL     1       4.605   8.896   2.635  0.00  0.00    +0.000 A 
ATOM      2  C   UNL     1       5.537   8.009   2.094  0.00  0.00    +0.000 A 
ATOM      3  C   UNL     1       4.395   8.931   4.013  0.00  0.00    +0.000 A 
ATOM      4  C   UNL     1       6.256   7.158   2.932  0.00  0.00    +0.000 A 
ATOM      5  C   UNL     1       5.115   8.080   4.850  0.00  0.00    +0.000 A 
ATOM      6  C   UNL     1       6.046   7.193   4.310  0.00  0.00    +0.000 A 
ATOM      7  H   UNL     1       5.720   7.923   1.027  0.00  0.00    +0.000 HD
ATOM      8  H   UNL     1       3.674   9.617   4.453  0.00  0.00    +0.000 HD
ATOM      9  H   UNL     1       6.977   6.462   2.511  0.00  0.00    +0.000 HD
ATOM     10  H   UNL     1       4.951   8.107   5.924  0.00  0.00    +0.000 HD
ATOM     11  H   UNL     1       6.606   6.529   4.962  0.00  0.00    +0.000 HD
ENDROOT
BRANCH   1  12
ATOM     12  C   UNL     1       3.856   9.786   1.762  0.00  0.00    +0.000 C 
ATOM     13  C   UNL     1       4.299  10.169   0.569  0.00  0.00    +0.000 C 
ATOM     14  H   UNL     1       2.901  10.140   2.145  0.00  0.00    +0.000 HD
ATOM     15  H   UNL     1       5.251   9.877   0.145  0.00  0.00    +0.000 HD
BRANCH  13  17
ATOM     16  O   UNL     1       3.408  11.143  -1.448  0.00  0.00    +0.000 OA
ATOM     17  C   UNL     1       3.466  11.090  -0.232  0.00  0.00    +0.000 C 
BRANCH  17  18
ATOM     18  O   UNL     1       2.762  11.882   0.611  0.00  0.00    +0.000 OA
ATOM     19  H   UNL     1       3.333  12.281   1.302  0.00  0.00    +0.000 HD
ENDBRANCH  17  18
ENDBRANCH  13  17
ENDBRANCH   1  12
TORSDOF 3
ENDMDL
MODEL 3
REMARK VINA RESULT:    -5.644     14.977     15.921
REMARK INTER + INTRA:          -6.612
REMARK INTER:                  -6.455
REMARK INTRA:                  -0.157
REMARK UNBOUND:                -0.143
REMARK  Name = 444539
REMARK  3 active torsions:
REMARK  status: ('A' for Active; 'I' for Inactive)
REMARK    1  A    between atoms: O_1  and  C_11
REMARK    2  A    between atoms: C_3  and  C_6
REMARK    3  A    between atoms: C_10  and  C_11
REMARK                            x       y       z     vdW  Elec       q    Type
REMARK                         _______ _______ _______ _____ _____    ______ ____
ROOT
ATOM      1  C   UNL     1      -1.618   8.689 -11.125  0.00  0.00    +0.000 A 
ATOM      2  C   UNL     1      -1.981   9.434 -10.002  0.00  0.00    +0.000 A 
ATOM      3  C   UNL     1      -2.052   7.371 -11.258  0.00  0.00    +0.000 A 
ATOM      4  C   UNL     1      -2.778   8.858  -9.013  0.00  0.00    +0.000 A 
ATOM      5  C   UNL     1      -2.849   6.796 -10.268  0.00  0.00    +0.000 A 
ATOM      6  C   UNL     1      -3.212   7.539  -9.145  0.00  0.00    +0.000 A 
ATOM      7  H   UNL     1      -1.649  10.454  -9.838  0.00  0.00    +0.000 HD
ATOM      8  H   UNL     1      -1.780   6.776 -12.127  0.00  0.00    +0.000 HD
ATOM      9  H   UNL     1      -3.056   9.435  -8.135  0.00  0.00    +0.000 HD
ATOM     10  H   UNL     1      -3.187   5.769 -10.371  0.00  0.00    +0.000 HD
ATOM     11  H   UNL     1      -3.831   7.091  -8.374  0.00  0.00    +0.000 HD
ENDROOT
BRANCH   1  12
ATOM     12  C   UNL     1      -0.789   9.289 -12.159  0.00  0.00    +0.000 C 
ATOM     13  C   UNL     1      -0.618   8.738 -13.357  0.00  0.00    +0.000 C 
ATOM     14  H   UNL     1      -0.297  10.223 -11.897  0.00  0.00    +0.000 HD
ATOM     15  H   UNL     1      -1.054   7.798 -13.669  0.00  0.00    +0.000 HD
BRANCH  13  17
ATOM     16  O   UNL     1       0.547  10.607 -14.338  0.00  0.00    +0.000 OA
ATOM     17  C   UNL     1       0.259   9.423 -14.331  0.00  0.00    +0.000 C 
BRANCH  17  18
ATOM     18  O   UNL     1       0.701   8.512 -15.230  0.00  0.00    +0.000 OA
ATOM     19  H   UNL     1       1.278   8.920 -15.911  0.00  0.00    +0.000 HD
ENDBRANCH  17  18
ENDBRANCH  13  17
ENDBRANCH   1  12
TORSDOF 3
ENDMDL
MODEL 4
REMARK VINA RESULT:    -5.488      2.922      3.693
REMARK INTER + INTRA:          -6.433
REMARK INTER:                  -6.278
REMARK INTRA:                  -0.156
REMARK UNBOUND:                -0.143
REMARK  Name = 444539
REMARK  3 active torsions:
REMARK  status: ('A' for Active; 'I' for Inactive)
REMARK    1  A    between atoms: O_1  and  C_11
REMARK    2  A    between atoms: C_3  and  C_6
REMARK    3  A    between atoms: C_10  and  C_11
REMARK                            x       y       z     vdW  Elec       q    Type
REMARK                         _______ _______ _______ _____ _____    ______ ____
ROOT
ATOM      1  C   UNL     1       6.028  10.311   0.062  0.00  0.00    +0.000 A 
ATOM      2  C   UNL     1       5.475   9.149   0.602  0.00  0.00    +0.000 A 
ATOM      3  C   UNL     1       5.274  11.482   0.006  0.00  0.00    +0.000 A 
ATOM      4  C   UNL     1       4.167   9.160   1.086  0.00  0.00    +0.000 A 
ATOM      5  C   UNL     1       3.966  11.492   0.490  0.00  0.00    +0.000 A 
ATOM      6  C   UNL     1       3.412  10.331   1.030  0.00  0.00    +0.000 A 
ATOM      7  H   UNL     1       6.010   8.205   0.646  0.00  0.00    +0.000 HD
ATOM      8  H   UNL     1       5.688  12.396  -0.411  0.00  0.00    +0.000 HD
ATOM      9  H   UNL     1       3.733   8.255   1.501  0.00  0.00    +0.000 HD
ATOM     10  H   UNL     1       3.377  12.404   0.446  0.00  0.00    +0.000 HD
ATOM     11  H   UNL     1       2.393  10.339   1.406  0.00  0.00    +0.000 HD
ENDROOT
BRANCH   1  12
ATOM     12  C   UNL     1       7.394  10.301  -0.441  0.00  0.00    +0.000 C 
ATOM     13  C   UNL     1       7.981   9.206  -0.912  0.00  0.00    +0.000 C 
ATOM     14  H   UNL     1       7.925  11.249  -0.401  0.00  0.00    +0.000 HD
ATOM     15  H   UNL     1       7.519   8.228  -0.950  0.00  0.00    +0.000 HD
BRANCH  13  17
ATOM     16  O   UNL     1      10.029  10.323  -1.520  0.00  0.00    +0.000 OA
ATOM     17  C   UNL     1       9.379   9.301  -1.383  0.00  0.00    +0.000 C 
BRANCH  17  18
ATOM     18  O   UNL     1       9.835   8.053  -1.643  0.00  0.00    +0.000 OA
ATOM     19  H   UNL     1      10.418   7.720  -0.928  0.00  0.00    +0.000 HD
ENDBRANCH  17  18
ENDBRANCH  13  17
ENDBRANCH   1  12
TORSDOF 3
ENDMDL
MODEL 5
REMARK VINA RESULT:    -5.420     17.594     18.326
REMARK INTER + INTRA:          -6.356
REMARK INTER:                  -6.205
REMARK INTRA:                  -0.151
REMARK UNBOUND:                -0.143
REMARK  Name = 444539
REMARK  3 active torsions:
REMARK  status: ('A' for Active; 'I' for Inactive)
REMARK    1  A    between atoms: O_1  and  C_11
REMARK    2  A    between atoms: C_3  and  C_6
REMARK    3  A    between atoms: C_10  and  C_11
REMARK                            x       y       z     vdW  Elec       q    Type
REMARK                         _______ _______ _______ _____ _____    ______ ____
ROOT
ATOM      1  C   UNL     1      -1.757  -0.390 -11.681  0.00  0.00    +0.000 A 
ATOM      2  C   UNL     1      -2.995  -0.402 -12.325  0.00  0.00    +0.000 A 
ATOM      3  C   UNL     1      -1.694  -0.452 -10.290  0.00  0.00    +0.000 A 
ATOM      4  C   UNL     1      -4.169  -0.475 -11.576  0.00  0.00    +0.000 A 
ATOM      5  C   UNL     1      -2.868  -0.526  -9.541  0.00  0.00    +0.000 A 
ATOM      6  C   UNL     1      -4.106  -0.538 -10.184  0.00  0.00    +0.000 A 
ATOM      7  H   UNL     1      -3.101  -0.330 -13.403  0.00  0.00    +0.000 HD
ATOM      8  H   UNL     1      -0.738  -0.445  -9.772  0.00  0.00    +0.000 HD
ATOM      9  H   UNL     1      -5.134  -0.479 -12.075  0.00  0.00    +0.000 HD
ATOM     10  H   UNL     1      -2.819  -0.574  -8.457  0.00  0.00    +0.000 HD
ATOM     11  H   UNL     1      -5.021  -0.593  -9.600  0.00  0.00    +0.000 HD
ENDROOT
BRANCH   1  12
ATOM     12  C   UNL     1      -0.532  -0.316 -12.462  0.00  0.00    +0.000 C 
ATOM     13  C   UNL     1       0.488   0.470 -12.133  0.00  0.00    +0.000 C 
ATOM     14  H   UNL     1      -0.493  -0.939 -13.353  0.00  0.00    +0.000 HD
ATOM     15  H   UNL     1       0.500   1.135 -11.278  0.00  0.00    +0.000 HD
BRANCH  13  17
ATOM     16  O   UNL     1       1.911   1.269 -13.907  0.00  0.00    +0.000 OA
ATOM     17  C   UNL     1       1.681   0.483 -13.004  0.00  0.00    +0.000 C 
BRANCH  17  18
ATOM     18  O   UNL     1       2.496  -0.534 -12.637  0.00  0.00    +0.000 OA
ATOM     19  H   UNL     1       1.996  -1.358 -12.456  0.00  0.00    +0.000 HD
ENDBRANCH  17  18
ENDBRANCH  13  17
ENDBRANCH   1  12
TORSDOF 3
ENDMDL
MODEL 6
REMARK VINA RESULT:    -5.385      2.221      2.762
REMARK INTER + INTRA:          -6.316
REMARK INTER:                  -6.157
REMARK INTRA:                  -0.159
REMARK UNBOUND:                -0.143
REMARK  Name = 444539
REMARK  3 active torsions:
REMARK  status: ('A' for Active; 'I' for Inactive)
REMARK    1  A    between atoms: O_1  and  C_11
REMARK    2  A    between atoms: C_3  and  C_6
REMARK    3  A    between atoms: C_10  and  C_11
REMARK                            x       y       z     vdW  Elec       q    Type
REMARK                         _______ _______ _______ _____ _____    ______ ____
ROOT
ATOM      1  C   UNL     1       5.729   8.699   1.068  0.00  0.00    +0.000 A 
ATOM      2  C   UNL     1       4.657   9.455   0.591  0.00  0.00    +0.000 A 
ATOM      3  C   UNL     1       5.717   8.222   2.378  0.00  0.00    +0.000 A 
ATOM      4  C   UNL     1       3.576   9.734   1.426  0.00  0.00    +0.000 A 
ATOM      5  C   UNL     1       4.635   8.502   3.213  0.00  0.00    +0.000 A 
ATOM      6  C   UNL     1       3.564   9.258   2.737  0.00  0.00    +0.000 A 
ATOM      7  H   UNL     1       4.628   9.872  -0.411  0.00  0.00    +0.000 HD
ATOM      8  H   UNL     1       6.543   7.631   2.767  0.00  0.00    +0.000 HD
ATOM      9  H   UNL     1       2.743  10.328   1.058  0.00  0.00    +0.000 HD
ATOM     10  H   UNL     1       4.626   8.131   4.234  0.00  0.00    +0.000 HD
ATOM     11  H   UNL     1       2.722   9.477   3.387  0.00  0.00    +0.000 HD
ENDROOT
BRANCH   1  12
ATOM     12  C   UNL     1       6.856   8.405   0.198  0.00  0.00    +0.000 C 
ATOM     13  C   UNL     1       7.654   9.348  -0.294  0.00  0.00    +0.000 C 
ATOM     14  H   UNL     1       7.012   7.357  -0.046  0.00  0.00    +0.000 HD
ATOM     15  H   UNL     1       7.535  10.409  -0.114  0.00  0.00    +0.000 HD
BRANCH  13  17
ATOM     16  O   UNL     1       9.738   9.612  -1.477  0.00  0.00    +0.000 OA
ATOM     17  C   UNL     1       8.763   8.943  -1.183  0.00  0.00    +0.000 C 
BRANCH  17  18
ATOM     18  O   UNL     1       8.523   7.687  -1.630  0.00  0.00    +0.000 OA
ATOM     19  H   UNL     1       8.163   7.685  -2.542  0.00  0.00    +0.000 HD
ENDBRANCH  17  18
ENDBRANCH  13  17
ENDBRANCH   1  12
TORSDOF 3
ENDMDL
MODEL 7
REMARK VINA RESULT:    -5.303      3.552      4.549
REMARK INTER + INTRA:          -6.222
REMARK INTER:                  -6.078
REMARK INTRA:                  -0.143
REMARK UNBOUND:                -0.143
REMARK  Name = 444539
REMARK  3 active torsions:
REMARK  status: ('A' for Active; 'I' for Inactive)
REMARK    1  A    between atoms: O_1  and  C_11
REMARK    2  A    between atoms: C_3  and  C_6
REMARK    3  A    between atoms: C_10  and  C_11
REMARK                            x       y       z     vdW  Elec       q    Type
REMARK                         _______ _______ _______ _____ _____    ______ ____
ROOT
ATOM      1  C   UNL     1       7.070  10.091  -0.367  0.00  0.00    +0.000 A 
ATOM      2  C   UNL     1       7.508   9.730  -1.642  0.00  0.00    +0.000 A 
ATOM      3  C   UNL     1       7.987  10.228   0.673  0.00  0.00    +0.000 A 
ATOM      4  C   UNL     1       8.865   9.507  -1.874  0.00  0.00    +0.000 A 
ATOM      5  C   UNL     1       9.344  10.005   0.440  0.00  0.00    +0.000 A 
ATOM      6  C   UNL     1       9.783   9.644  -0.834  0.00  0.00    +0.000 A 
ATOM      7  H   UNL     1       6.833   9.584  -2.479  0.00  0.00    +0.000 HD
ATOM      8  H   UNL     1       7.664  10.510   1.673  0.00  0.00    +0.000 HD
ATOM      9  H   UNL     1       9.207   9.220  -2.865  0.00  0.00    +0.000 HD
ATOM     10  H   UNL     1      10.060  10.112   1.250  0.00  0.00    +0.000 HD
ATOM     11  H   UNL     1      10.840   9.469  -1.015  0.00  0.00    +0.000 HD
ENDROOT
BRANCH   1  12
ATOM     12  C   UNL     1       5.655  10.326  -0.124  0.00  0.00    +0.000 C 
ATOM     13  C   UNL     1       5.149  11.539   0.077  0.00  0.00    +0.000 C 
ATOM     14  H   UNL     1       5.019   9.444  -0.102  0.00  0.00    +0.000 HD
ATOM     15  H   UNL     1       5.731  12.452   0.097  0.00  0.00    +0.000 HD
BRANCH  13  17
ATOM     16  O   UNL     1       3.121  11.413   1.375  0.00  0.00    +0.000 OA
ATOM     17  C   UNL     1       3.699  11.667   0.332  0.00  0.00    +0.000 C 
BRANCH  17  18
ATOM     18  O   UNL     1       3.099  12.119  -0.795  0.00  0.00    +0.000 OA
ATOM     19  H   UNL     1       2.148  12.312  -0.652  0.00  0.00    +0.000 HD
ENDBRANCH  17  18
ENDBRANCH  13  17
ENDBRANCH   1  12
TORSDOF 3
ENDMDL
MODEL 8
REMARK VINA RESULT:    -5.230     30.162     31.161
REMARK INTER + INTRA:          -6.138
REMARK INTER:                  -5.976
REMARK INTRA:                  -0.162
REMARK UNBOUND:                -0.143
REMARK  Name = 444539
REMARK  3 active torsions:
REMARK  status: ('A' for Active; 'I' for Inactive)
REMARK    1  A    between atoms: O_1  and  C_11
REMARK    2  A    between atoms: C_3  and  C_6
REMARK    3  A    between atoms: C_10  and  C_11
REMARK                            x       y       z     vdW  Elec       q    Type
REMARK                         _______ _______ _______ _____ _____    ______ ____
ROOT
ATOM      1  C   UNL     1     -21.148  -2.554   6.631  0.00  0.00    +0.000 A 
ATOM      2  C   UNL     1     -20.799  -1.463   7.428  0.00  0.00    +0.000 A 
ATOM      3  C   UNL     1     -22.490  -2.874   6.434  0.00  0.00    +0.000 A 
ATOM      4  C   UNL     1     -21.795  -0.693   8.028  0.00  0.00    +0.000 A 
ATOM      5  C   UNL     1     -23.486  -2.103   7.036  0.00  0.00    +0.000 A 
ATOM      6  C   UNL     1     -23.139  -1.012   7.832  0.00  0.00    +0.000 A 
ATOM      7  H   UNL     1     -19.770  -1.186   7.634  0.00  0.00    +0.000 HD
ATOM      8  H   UNL     1     -22.781  -3.720   5.816  0.00  0.00    +0.000 HD
ATOM      9  H   UNL     1     -21.525   0.154   8.654  0.00  0.00    +0.000 HD
ATOM     10  H   UNL     1     -24.532  -2.352   6.883  0.00  0.00    +0.000 HD
ATOM     11  H   UNL     1     -23.914  -0.413   8.301  0.00  0.00    +0.000 HD
ENDROOT
BRANCH   1  12
ATOM     12  C   UNL     1     -20.110  -3.356   6.002  0.00  0.00    +0.000 C 
ATOM     13  C   UNL     1     -20.376  -4.337   5.145  0.00  0.00    +0.000 C 
ATOM     14  H   UNL     1     -19.086  -3.118   6.280  0.00  0.00    +0.000 HD
ATOM     15  H   UNL     1     -21.372  -4.643   4.850  0.00  0.00    +0.000 HD
BRANCH  13  17
ATOM     16  O   UNL     1     -18.987  -5.236   3.392  0.00  0.00    +0.000 OA
ATOM     17  C   UNL     1     -19.247  -5.102   4.575  0.00  0.00    +0.000 C 
BRANCH  17  18
ATOM     18  O   UNL     1     -18.533  -5.642   5.590  0.00  0.00    +0.000 OA
ATOM     19  H   UNL     1     -18.924  -5.432   6.465  0.00  0.00    +0.000 HD
ENDBRANCH  17  18
ENDBRANCH  13  17
ENDBRANCH   1  12
TORSDOF 3
ENDMDL
MODEL 9
REMARK VINA RESULT:    -5.194      3.375      4.817
REMARK INTER + INTRA:          -6.097
REMARK INTER:                  -5.938
REMARK INTRA:                  -0.159
REMARK UNBOUND:                -0.143
REMARK  Name = 444539
REMARK  3 active torsions:
REMARK  status: ('A' for Active; 'I' for Inactive)
REMARK    1  A    between atoms: O_1  and  C_11
REMARK    2  A    between atoms: C_3  and  C_6
REMARK    3  A    between atoms: C_10  and  C_11
REMARK                            x       y       z     vdW  Elec       q    Type
REMARK                         _______ _______ _______ _____ _____    ______ ____
ROOT
ATOM      1  C   UNL     1       7.228   9.010   0.477  0.00  0.00    +0.000 A 
ATOM      2  C   UNL     1       7.056   8.259  -0.687  0.00  0.00    +0.000 A 
ATOM      3  C   UNL     1       8.347   9.829   0.620  0.00  0.00    +0.000 A 
ATOM      4  C   UNL     1       8.006   8.328  -1.706  0.00  0.00    +0.000 A 
ATOM      5  C   UNL     1       9.296   9.898  -0.400  0.00  0.00    +0.000 A 
ATOM      6  C   UNL     1       9.125   9.148  -1.564  0.00  0.00    +0.000 A 
ATOM      7  H   UNL     1       6.218   7.587  -0.838  0.00  0.00    +0.000 HD
ATOM      8  H   UNL     1       8.497  10.422   1.519  0.00  0.00    +0.000 HD
ATOM      9  H   UNL     1       7.877   7.740  -2.610  0.00  0.00    +0.000 HD
ATOM     10  H   UNL     1      10.168  10.536  -0.289  0.00  0.00    +0.000 HD
ATOM     11  H   UNL     1       9.865   9.200  -2.358  0.00  0.00    +0.000 HD
ENDROOT
BRANCH   1  12
ATOM     12  C   UNL     1       6.237   8.941   1.540  0.00  0.00    +0.000 C 
ATOM     13  C   UNL     1       4.928   8.964   1.309  0.00  0.00    +0.000 C 
ATOM     14  H   UNL     1       6.626   8.880   2.554  0.00  0.00    +0.000 HD
ATOM     15  H   UNL     1       4.478   9.054   0.328  0.00  0.00    +0.000 HD
BRANCH  13  17
ATOM     16  O   UNL     1       3.009   9.586   2.629  0.00  0.00    +0.000 OA
ATOM     17  C   UNL     1       4.006   8.905   2.463  0.00  0.00    +0.000 C 
BRANCH  17  18
ATOM     18  O   UNL     1       4.449   7.958   3.323  0.00  0.00    +0.000 OA
ATOM     19  H   UNL     1       3.723   7.591   3.870  0.00  0.00    +0.000 HD
ENDBRANCH  17  18
ENDBRANCH  13  17
ENDBRANCH   1  12
TORSDOF 3
ENDMDL
MODEL 10
REMARK VINA RESULT:    -5.163      3.398      5.286
REMARK INTER + INTRA:          -6.061
REMARK INTER:                  -5.908
REMARK INTRA:                  -0.153
REMARK UNBOUND:                -0.143
REMARK  Name = 444539
REMARK  3 active torsions:
REMARK  status: ('A' for Active; 'I' for Inactive)
REMARK    1  A    between atoms: O_1  and  C_11
REMARK    2  A    between atoms: C_3  and  C_6
REMARK    3  A    between atoms: C_10  and  C_11
REMARK                            x       y       z     vdW  Elec       q    Type
REMARK                         _______ _______ _______ _____ _____    ______ ____
ROOT
ATOM      1  C   UNL     1       6.369   9.114   0.736  0.00  0.00    +0.000 A 
ATOM      2  C   UNL     1       5.518   9.982   0.052  0.00  0.00    +0.000 A 
ATOM      3  C   UNL     1       7.737   9.123   0.469  0.00  0.00    +0.000 A 
ATOM      4  C   UNL     1       6.037  10.858  -0.901  0.00  0.00    +0.000 A 
ATOM      5  C   UNL     1       8.256   9.999  -0.484  0.00  0.00    +0.000 A 
ATOM      6  C   UNL     1       7.406  10.868  -1.169  0.00  0.00    +0.000 A 
ATOM      7  H   UNL     1       4.443   9.998   0.203  0.00  0.00    +0.000 HD
ATOM      8  H   UNL     1       8.415   8.454   0.994  0.00  0.00    +0.000 HD
ATOM      9  H   UNL     1       5.375  11.531  -1.440  0.00  0.00    +0.000 HD
ATOM     10  H   UNL     1       9.322  10.006  -0.693  0.00  0.00    +0.000 HD
ATOM     11  H   UNL     1       7.810  11.550  -1.912  0.00  0.00    +0.000 HD
ENDROOT
BRANCH   1  12
ATOM     12  C   UNL     1       5.829   8.201   1.732  0.00  0.00    +0.000 C 
ATOM     13  C   UNL     1       6.431   7.960   2.892  0.00  0.00    +0.000 C 
ATOM     14  H   UNL     1       4.896   7.706   1.473  0.00  0.00    +0.000 HD
ATOM     15  H   UNL     1       7.374   8.396   3.198  0.00  0.00    +0.000 HD
BRANCH  13  17
ATOM     16  O   UNL     1       4.750   6.416   3.666  0.00  0.00    +0.000 OA
ATOM     17  C   UNL     1       5.806   7.002   3.828  0.00  0.00    +0.000 C 
BRANCH  17  18
ATOM     18  O   UNL     1       6.604   6.872   4.913  0.00  0.00    +0.000 OA
ATOM     19  H   UNL     1       6.261   6.204   5.544  0.00  0.00    +0.000 HD
ENDBRANCH  17  18
ENDBRANCH  13  17
ENDBRANCH   1  12
TORSDOF 3
ENDMDL
