MODEL 1
REMARK VINA RESULT:    -5.603      0.000      0.000
REMARK INTER + INTRA:          -6.749
REMARK INTER:                  -6.581
REMARK INTRA:                  -0.168
REMARK UNBOUND:                -0.164
REMARK  Name = 637563
REMARK  4 active torsions:
REMARK  status: ('A' for Active; 'I' for Inactive)
REMARK    1  A    between atoms: O_1  and  C_5
REMARK    2  A    between atoms: O_1  and  C_11
REMARK    3  A    between atoms: C_2  and  C_8
REMARK    4  A    between atoms: C_9  and  C_10
REMARK                            x       y       z     vdW  Elec       q    Type
REMARK                         _______ _______ _______ _____ _____    ______ ____
ROOT
ATOM      1  C   UNL     1      -3.297   7.313  -9.552  0.00  0.00    +0.000 A 
ATOM      2  C   UNL     1      -2.703   6.753 -10.683  0.00  0.00    +0.000 A 
ATOM      3  C   UNL     1      -2.972   8.614  -9.166  0.00  0.00    +0.000 A 
ATOM      4  C   UNL     1      -1.461   8.793 -11.043  0.00  0.00    +0.000 A 
ATOM      5  C   UNL     1      -1.786   7.492 -11.429  0.00  0.00    +0.000 A 
ATOM      6  C   UNL     1      -2.054   9.354  -9.912  0.00  0.00    +0.000 A 
ATOM      7  H   UNL     1      -2.910   5.738 -11.009  0.00  0.00    +0.000 HD
ATOM      8  H   UNL     1      -3.425   9.067  -8.288  0.00  0.00    +0.000 HD
ATOM      9  H   UNL     1      -1.323   7.049 -12.306  0.00  0.00    +0.000 HD
ATOM     10  H   UNL     1      -1.847  10.358  -9.557  0.00  0.00    +0.000 HD
ENDROOT
BRANCH   1  11
ATOM     11  C   UNL     1      -4.253   6.542  -8.773  0.00  0.00    +0.000 C 
ATOM     12  C   UNL     1      -5.465   6.122  -9.199  0.00  0.00    +0.000 C 
ATOM     13  H   UNL     1      -3.952   6.302  -7.756  0.00  0.00    +0.000 HD
ATOM     14  H   UNL     1      -5.825   6.358 -10.197  0.00  0.00    +0.000 HD
BRANCH  12  15
ATOM     15  C   UNL     1      -6.421   5.338  -8.360  0.00  0.00    +0.000 C 
ATOM     16  H   UNL     1      -7.134   6.013  -7.878  0.00  0.00    +0.000 HD
ATOM     17  H   UNL     1      -6.980   4.637  -8.988  0.00  0.00    +0.000 HD
ATOM     18  H   UNL     1      -5.912   4.765  -7.580  0.00  0.00    +0.000 HD
ENDBRANCH  12  15
ENDBRANCH   1  11
BRANCH   4  19
ATOM     19  O   UNL     1      -0.565   9.515 -11.770  0.00  0.00    +0.000 OA
BRANCH  19  20
ATOM     20  C   UNL     1      -0.162   8.972 -13.027  0.00  0.00    +0.000 C 
ATOM     21  H   UNL     1       0.136   9.760 -13.728  0.00  0.00    +0.000 HD
ATOM     22  H   UNL     1      -0.929   8.313 -13.445  0.00  0.00    +0.000 HD
ATOM     23  H   UNL     1       0.724   8.356 -12.843  0.00  0.00    +0.000 HD
ENDBRANCH  19  20
ENDBRANCH   4  19
TORSDOF 4
ENDMDL
MODEL 2
REMARK VINA RESULT:    -5.244     14.225     15.331
REMARK INTER + INTRA:          -6.327
REMARK INTER:                  -6.173
REMARK INTRA:                  -0.154
REMARK UNBOUND:                -0.164
REMARK  Name = 637563
REMARK  4 active torsions:
REMARK  status: ('A' for Active; 'I' for Inactive)
REMARK    1  A    between atoms: O_1  and  C_5
REMARK    2  A    between atoms: O_1  and  C_11
REMARK    3  A    between atoms: C_2  and  C_8
REMARK    4  A    between atoms: C_9  and  C_10
REMARK                            x       y       z     vdW  Elec       q    Type
REMARK                         _______ _______ _______ _____ _____    ______ ____
ROOT
ATOM      1  C   UNL     1       4.585   9.056   1.278  0.00  0.00    +0.000 A 
ATOM      2  C   UNL     1       3.977   9.091   2.533  0.00  0.00    +0.000 A 
ATOM      3  C   UNL     1       5.891   8.582   1.149  0.00  0.00    +0.000 A 
ATOM      4  C   UNL     1       5.980   8.180   3.530  0.00  0.00    +0.000 A 
ATOM      5  C   UNL     1       4.674   8.654   3.659  0.00  0.00    +0.000 A 
ATOM      6  C   UNL     1       6.588   8.144   2.275  0.00  0.00    +0.000 A 
ATOM      7  H   UNL     1       2.971   9.470   2.684  0.00  0.00    +0.000 HD
ATOM      8  H   UNL     1       6.380   8.546   0.179  0.00  0.00    +0.000 HD
ATOM      9  H   UNL     1       4.197   8.688   4.634  0.00  0.00    +0.000 HD
ATOM     10  H   UNL     1       7.599   7.789   2.104  0.00  0.00    +0.000 HD
ENDROOT
BRANCH   1  11
ATOM     11  C   UNL     1       3.859   9.512   0.104  0.00  0.00    +0.000 C 
ATOM     12  C   UNL     1       3.940  10.744  -0.448  0.00  0.00    +0.000 C 
ATOM     13  H   UNL     1       3.187   8.787  -0.350  0.00  0.00    +0.000 HD
ATOM     14  H   UNL     1       4.576  11.513  -0.019  0.00  0.00    +0.000 HD
BRANCH  12  15
ATOM     15  C   UNL     1       3.167  11.174  -1.653  0.00  0.00    +0.000 C 
ATOM     16  H   UNL     1       2.346  10.475  -1.837  0.00  0.00    +0.000 HD
ATOM     17  H   UNL     1       2.742  12.169  -1.487  0.00  0.00    +0.000 HD
ATOM     18  H   UNL     1       3.790  11.214  -2.551  0.00  0.00    +0.000 HD
ENDBRANCH  12  15
ENDBRANCH   1  11
BRANCH   4  19
ATOM     19  O   UNL     1       6.661   7.754   4.629  0.00  0.00    +0.000 OA
BRANCH  19  20
ATOM     20  C   UNL     1       7.444   8.722   5.324  0.00  0.00    +0.000 C 
ATOM     21  H   UNL     1       7.567   8.458   6.380  0.00  0.00    +0.000 HD
ATOM     22  H   UNL     1       7.045   9.733   5.192  0.00  0.00    +0.000 HD
ATOM     23  H   UNL     1       8.443   8.713   4.874  0.00  0.00    +0.000 HD
ENDBRANCH  19  20
ENDBRANCH   4  19
TORSDOF 4
ENDMDL
MODEL 3
REMARK VINA RESULT:    -5.179      1.730      5.393
REMARK INTER + INTRA:          -6.250
REMARK INTER:                  -6.074
REMARK INTRA:                  -0.177
REMARK UNBOUND:                -0.164
REMARK  Name = 637563
REMARK  4 active torsions:
REMARK  status: ('A' for Active; 'I' for Inactive)
REMARK    1  A    between atoms: O_1  and  C_5
REMARK    2  A    between atoms: O_1  and  C_11
REMARK    3  A    between atoms: C_2  and  C_8
REMARK    4  A    between atoms: C_9  and  C_10
REMARK                            x       y       z     vdW  Elec       q    Type
REMARK                         _______ _______ _______ _____ _____    ______ ____
ROOT
ATOM      1  C   UNL     1      -1.185   8.899 -11.604  0.00  0.00    +0.000 A 
ATOM      2  C   UNL     1      -1.507   9.756 -10.551  0.00  0.00    +0.000 A 
ATOM      3  C   UNL     1      -1.683   7.596 -11.620  0.00  0.00    +0.000 A 
ATOM      4  C   UNL     1      -2.825   8.007  -9.531  0.00  0.00    +0.000 A 
ATOM      5  C   UNL     1      -2.327   9.310  -9.514  0.00  0.00    +0.000 A 
ATOM      6  C   UNL     1      -2.503   7.150 -10.584  0.00  0.00    +0.000 A 
ATOM      7  H   UNL     1      -1.126  10.771 -10.486  0.00  0.00    +0.000 HD
ATOM      8  H   UNL     1      -1.443   6.916 -12.433  0.00  0.00    +0.000 HD
ATOM      9  H   UNL     1      -2.571   9.980  -8.695  0.00  0.00    +0.000 HD
ATOM     10  H   UNL     1      -2.855   6.127 -10.658  0.00  0.00    +0.000 HD
ENDROOT
BRANCH   1  11
ATOM     11  C   UNL     1      -0.329   9.364 -12.684  0.00  0.00    +0.000 C 
ATOM     12  C   UNL     1      -0.231   8.806 -13.912  0.00  0.00    +0.000 C 
ATOM     13  H   UNL     1       0.288  10.231 -12.461  0.00  0.00    +0.000 HD
ATOM     14  H   UNL     1      -0.805   7.924 -14.177  0.00  0.00    +0.000 HD
BRANCH  12  15
ATOM     15  C   UNL     1       0.670   9.313 -14.991  0.00  0.00    +0.000 C 
ATOM     16  H   UNL     1       0.268  10.242 -15.407  0.00  0.00    +0.000 HD
ATOM     17  H   UNL     1       1.663   9.521 -14.579  0.00  0.00    +0.000 HD
ATOM     18  H   UNL     1       0.783   8.594 -15.808  0.00  0.00    +0.000 HD
ENDBRANCH  12  15
ENDBRANCH   1  11
BRANCH   4  19
ATOM     19  O   UNL     1      -3.624   7.571  -8.519  0.00  0.00    +0.000 OA
BRANCH  19  20
ATOM     20  C   UNL     1      -4.411   6.407  -8.768  0.00  0.00    +0.000 C 
ATOM     21  H   UNL     1      -4.421   6.149  -9.832  0.00  0.00    +0.000 HD
ATOM     22  H   UNL     1      -5.420   6.507  -8.355  0.00  0.00    +0.000 HD
ATOM     23  H   UNL     1      -3.931   5.575  -8.242  0.00  0.00    +0.000 HD
ENDBRANCH  19  20
ENDBRANCH   4  19
TORSDOF 4
ENDMDL
MODEL 4
REMARK VINA RESULT:    -4.918      1.339      2.448
REMARK INTER + INTRA:          -5.944
REMARK INTER:                  -5.766
REMARK INTRA:                  -0.178
REMARK UNBOUND:                -0.164
REMARK  Name = 637563
REMARK  4 active torsions:
REMARK  status: ('A' for Active; 'I' for Inactive)
REMARK    1  A    between atoms: O_1  and  C_5
REMARK    2  A    between atoms: O_1  and  C_11
REMARK    3  A    between atoms: C_2  and  C_8
REMARK    4  A    between atoms: C_9  and  C_10
REMARK                            x       y       z     vdW  Elec       q    Type
REMARK                         _______ _______ _______ _____ _____    ______ ____
ROOT
ATOM      1  C   UNL     1      -2.034   7.492 -11.605  0.00  0.00    +0.000 A 
ATOM      2  C   UNL     1      -1.718   7.002 -12.872  0.00  0.00    +0.000 A 
ATOM      3  C   UNL     1      -1.510   8.713 -11.179  0.00  0.00    +0.000 A 
ATOM      4  C   UNL     1      -0.352   8.951 -13.286  0.00  0.00    +0.000 A 
ATOM      5  C   UNL     1      -0.877   7.731 -13.713  0.00  0.00    +0.000 A 
ATOM      6  C   UNL     1      -0.669   9.442 -12.020  0.00  0.00    +0.000 A 
ATOM      7  H   UNL     1      -2.086   6.048 -13.239  0.00  0.00    +0.000 HD
ATOM      8  H   UNL     1      -1.747   9.110 -10.195  0.00  0.00    +0.000 HD
ATOM      9  H   UNL     1      -0.630   7.342 -14.697  0.00  0.00    +0.000 HD
ATOM     10  H   UNL     1      -0.297  10.381 -11.626  0.00  0.00    +0.000 HD
ENDROOT
BRANCH   1  11
ATOM     11  C   UNL     1      -2.910   6.731 -10.728  0.00  0.00    +0.000 C 
ATOM     12  C   UNL     1      -3.476   7.185  -9.587  0.00  0.00    +0.000 C 
ATOM     13  H   UNL     1      -3.107   5.705 -11.029  0.00  0.00    +0.000 HD
ATOM     14  H   UNL     1      -3.291   8.193  -9.229  0.00  0.00    +0.000 HD
BRANCH  12  15
ATOM     15  C   UNL     1      -4.365   6.363  -8.710  0.00  0.00    +0.000 C 
ATOM     16  H   UNL     1      -3.862   5.429  -8.441  0.00  0.00    +0.000 HD
ATOM     17  H   UNL     1      -4.589   6.912  -7.790  0.00  0.00    +0.000 HD
ATOM     18  H   UNL     1      -5.311   6.114  -9.199  0.00  0.00    +0.000 HD
ENDBRANCH  12  15
ENDBRANCH   1  11
BRANCH   4  19
ATOM     19  O   UNL     1       0.469   9.663 -14.106  0.00  0.00    +0.000 OA
BRANCH  19  20
ATOM     20  C   UNL     1       0.691   9.140 -15.415  0.00  0.00    +0.000 C 
ATOM     21  H   UNL     1      -0.226   8.718 -15.841  0.00  0.00    +0.000 HD
ATOM     22  H   UNL     1       1.521   8.427 -15.428  0.00  0.00    +0.000 HD
ATOM     23  H   UNL     1       0.981   9.981 -16.053  0.00  0.00    +0.000 HD
ENDBRANCH  19  20
ENDBRANCH   4  19
TORSDOF 4
ENDMDL
MODEL 5
REMARK VINA RESULT:    -4.853     15.904     16.890
REMARK INTER + INTRA:          -5.867
REMARK INTER:                  -5.711
REMARK INTRA:                  -0.156
REMARK UNBOUND:                -0.164
REMARK  Name = 637563
REMARK  4 active torsions:
REMARK  status: ('A' for Active; 'I' for Inactive)
REMARK    1  A    between atoms: O_1  and  C_5
REMARK    2  A    between atoms: O_1  and  C_11
REMARK    3  A    between atoms: C_2  and  C_8
REMARK    4  A    between atoms: C_9  and  C_10
REMARK                            x       y       z     vdW  Elec       q    Type
REMARK                         _______ _______ _______ _____ _____    ______ ____
ROOT
ATOM      1  C   UNL     1       6.658   8.506   4.191  0.00  0.00    +0.000 A 
ATOM      2  C   UNL     1       5.264   8.465   4.153  0.00  0.00    +0.000 A 
ATOM      3  C   UNL     1       7.385   8.630   3.006  0.00  0.00    +0.000 A 
ATOM      4  C   UNL     1       5.323   8.671   1.746  0.00  0.00    +0.000 A 
ATOM      5  C   UNL     1       4.597   8.547   2.931  0.00  0.00    +0.000 A 
ATOM      6  C   UNL     1       6.717   8.712   1.785  0.00  0.00    +0.000 A 
ATOM      7  H   UNL     1       4.658   8.350   5.046  0.00  0.00    +0.000 HD
ATOM      8  H   UNL     1       8.471   8.664   3.018  0.00  0.00    +0.000 HD
ATOM      9  H   UNL     1       3.512   8.510   2.907  0.00  0.00    +0.000 HD
ATOM     10  H   UNL     1       7.342   8.806   0.903  0.00  0.00    +0.000 HD
ENDROOT
BRANCH   1  11
ATOM     11  C   UNL     1       7.354   8.419   5.465  0.00  0.00    +0.000 C 
ATOM     12  C   UNL     1       8.029   9.424   6.068  0.00  0.00    +0.000 C 
ATOM     13  H   UNL     1       7.328   7.449   5.955  0.00  0.00    +0.000 HD
ATOM     14  H   UNL     1       8.108  10.405   5.610  0.00  0.00    +0.000 HD
BRANCH  12  15
ATOM     15  C   UNL     1       8.739   9.287   7.376  0.00  0.00    +0.000 C 
ATOM     16  H   UNL     1       8.260   9.920   8.129  0.00  0.00    +0.000 HD
ATOM     17  H   UNL     1       8.691   8.248   7.719  0.00  0.00    +0.000 HD
ATOM     18  H   UNL     1       9.792   9.575   7.307  0.00  0.00    +0.000 HD
ENDBRANCH  12  15
ENDBRANCH   1  11
BRANCH   4  19
ATOM     19  O   UNL     1       4.672   8.750   0.554  0.00  0.00    +0.000 OA
BRANCH  19  20
ATOM     20  C   UNL     1       4.008   9.977   0.257  0.00  0.00    +0.000 C 
ATOM     21  H   UNL     1       3.046  10.049   0.775  0.00  0.00    +0.000 HD
ATOM     22  H   UNL     1       3.911  10.132  -0.822  0.00  0.00    +0.000 HD
ATOM     23  H   UNL     1       4.639  10.786   0.640  0.00  0.00    +0.000 HD
ENDBRANCH  19  20
ENDBRANCH   4  19
TORSDOF 4
ENDMDL
MODEL 6
REMARK VINA RESULT:    -4.836     16.789     18.436
REMARK INTER + INTRA:          -5.848
REMARK INTER:                  -5.682
REMARK INTRA:                  -0.165
REMARK UNBOUND:                -0.164
REMARK  Name = 637563
REMARK  4 active torsions:
REMARK  status: ('A' for Active; 'I' for Inactive)
REMARK    1  A    between atoms: O_1  and  C_5
REMARK    2  A    between atoms: O_1  and  C_11
REMARK    3  A    between atoms: C_2  and  C_8
REMARK    4  A    between atoms: C_9  and  C_10
REMARK                            x       y       z     vdW  Elec       q    Type
REMARK                         _______ _______ _______ _____ _____    ______ ____
ROOT
ATOM      1  C   UNL     1      -6.970  13.179   5.686  0.00  0.00    +0.000 A 
ATOM      2  C   UNL     1      -7.311  13.040   7.031  0.00  0.00    +0.000 A 
ATOM      3  C   UNL     1      -7.297  12.173   4.776  0.00  0.00    +0.000 A 
ATOM      4  C   UNL     1      -8.306  10.890   6.557  0.00  0.00    +0.000 A 
ATOM      5  C   UNL     1      -7.979  11.896   7.467  0.00  0.00    +0.000 A 
ATOM      6  C   UNL     1      -7.965  11.029   5.211  0.00  0.00    +0.000 A 
ATOM      7  H   UNL     1      -7.060  13.786   7.778  0.00  0.00    +0.000 HD
ATOM      8  H   UNL     1      -7.039  12.265   3.724  0.00  0.00    +0.000 HD
ATOM      9  H   UNL     1      -8.239  11.790   8.516  0.00  0.00    +0.000 HD
ATOM     10  H   UNL     1      -8.188  10.287   4.452  0.00  0.00    +0.000 HD
ENDROOT
BRANCH   1  11
ATOM     11  C   UNL     1      -6.273  14.371   5.231  0.00  0.00    +0.000 C 
ATOM     12  C   UNL     1      -6.767  15.630   5.242  0.00  0.00    +0.000 C 
ATOM     13  H   UNL     1      -5.269  14.214   4.842  0.00  0.00    +0.000 HD
ATOM     14  H   UNL     1      -7.772  15.838   5.596  0.00  0.00    +0.000 HD
BRANCH  12  15
ATOM     15  C   UNL     1      -6.016  16.827   4.755  0.00  0.00    +0.000 C 
ATOM     16  H   UNL     1      -6.657  17.431   4.106  0.00  0.00    +0.000 HD
ATOM     17  H   UNL     1      -5.707  17.444   5.606  0.00  0.00    +0.000 HD
ATOM     18  H   UNL     1      -5.121  16.552   4.190  0.00  0.00    +0.000 HD
ENDBRANCH  12  15
ENDBRANCH   1  11
BRANCH   4  19
ATOM     19  O   UNL     1      -8.957   9.773   6.982  0.00  0.00    +0.000 OA
BRANCH  19  20
ATOM     20  C   UNL     1      -8.672   9.318   8.304  0.00  0.00    +0.000 C 
ATOM     21  H   UNL     1      -7.641   9.550   8.595  0.00  0.00    +0.000 HD
ATOM     22  H   UNL     1      -8.909   8.256   8.424  0.00  0.00    +0.000 HD
ATOM     23  H   UNL     1      -9.328   9.871   8.984  0.00  0.00    +0.000 HD
ENDBRANCH  19  20
ENDBRANCH   4  19
TORSDOF 4
ENDMDL
MODEL 7
REMARK VINA RESULT:    -4.820     25.328     26.371
REMARK INTER + INTRA:          -5.828
REMARK INTER:                  -5.660
REMARK INTRA:                  -0.168
REMARK UNBOUND:                -0.164
REMARK  Name = 637563
REMARK  4 active torsions:
REMARK  status: ('A' for Active; 'I' for Inactive)
REMARK    1  A    between atoms: O_1  and  C_5
REMARK    2  A    between atoms: O_1  and  C_11
REMARK    3  A    between atoms: C_2  and  C_8
REMARK    4  A    between atoms: C_9  and  C_10
REMARK                            x       y       z     vdW  Elec       q    Type
REMARK                         _______ _______ _______ _____ _____    ______ ____
ROOT
ATOM      1  C   UNL     1     -20.684  -3.000   4.648  0.00  0.00    +0.000 A 
ATOM      2  C   UNL     1     -20.756  -1.623   4.436  0.00  0.00    +0.000 A 
ATOM      3  C   UNL     1     -20.796  -3.513   5.941  0.00  0.00    +0.000 A 
ATOM      4  C   UNL     1     -21.052  -1.273   6.809  0.00  0.00    +0.000 A 
ATOM      5  C   UNL     1     -20.940  -0.759   5.516  0.00  0.00    +0.000 A 
ATOM      6  C   UNL     1     -20.979  -2.650   7.020  0.00  0.00    +0.000 A 
ATOM      7  H   UNL     1     -20.655  -1.177   3.452  0.00  0.00    +0.000 HD
ATOM      8  H   UNL     1     -20.742  -4.583   6.124  0.00  0.00    +0.000 HD
ATOM      9  H   UNL     1     -20.991   0.312   5.346  0.00  0.00    +0.000 HD
ATOM     10  H   UNL     1     -21.058  -3.115   7.997  0.00  0.00    +0.000 HD
ENDROOT
BRANCH   1  11
ATOM     11  C   UNL     1     -20.492  -3.900   3.523  0.00  0.00    +0.000 C 
ATOM     12  C   UNL     1     -19.835  -5.082   3.557  0.00  0.00    +0.000 C 
ATOM     13  H   UNL     1     -20.911  -3.571   2.575  0.00  0.00    +0.000 HD
ATOM     14  H   UNL     1     -19.375  -5.444   4.472  0.00  0.00    +0.000 HD
BRANCH  12  15
ATOM     15  C   UNL     1     -19.654  -5.973   2.371  0.00  0.00    +0.000 C 
ATOM     16  H   UNL     1     -20.508  -6.650   2.279  0.00  0.00    +0.000 HD
ATOM     17  H   UNL     1     -19.592  -5.370   1.459  0.00  0.00    +0.000 HD
ATOM     18  H   UNL     1     -18.745  -6.577   2.443  0.00  0.00    +0.000 HD
ENDBRANCH  12  15
ENDBRANCH   1  11
BRANCH   4  19
ATOM     19  O   UNL     1     -21.230  -0.430   7.862  0.00  0.00    +0.000 OA
BRANCH  19  20
ATOM     20  C   UNL     1     -22.319  -0.710   8.741  0.00  0.00    +0.000 C 
ATOM     21  H   UNL     1     -22.977   0.158   8.855  0.00  0.00    +0.000 HD
ATOM     22  H   UNL     1     -21.971  -1.097   9.704  0.00  0.00    +0.000 HD
ATOM     23  H   UNL     1     -22.914  -1.502   8.274  0.00  0.00    +0.000 HD
ENDBRANCH  19  20
ENDBRANCH   4  19
TORSDOF 4
ENDMDL
MODEL 8
REMARK VINA RESULT:    -4.791      8.494      9.239
REMARK INTER + INTRA:          -5.795
REMARK INTER:                  -5.639
REMARK INTRA:                  -0.157
REMARK UNBOUND:                -0.164
REMARK  Name = 637563
REMARK  4 active torsions:
REMARK  status: ('A' for Active; 'I' for Inactive)
REMARK    1  A    between atoms: O_1  and  C_5
REMARK    2  A    between atoms: O_1  and  C_11
REMARK    3  A    between atoms: C_2  and  C_8
REMARK    4  A    between atoms: C_9  and  C_10
REMARK                            x       y       z     vdW  Elec       q    Type
REMARK                         _______ _______ _______ _____ _____    ______ ____
ROOT
ATOM      1  C   UNL     1      -0.373  -0.520 -12.102  0.00  0.00    +0.000 A 
ATOM      2  C   UNL     1       0.410   0.627 -11.971  0.00  0.00    +0.000 A 
ATOM      3  C   UNL     1       0.141  -1.646 -12.747  0.00  0.00    +0.000 A 
ATOM      4  C   UNL     1       2.221  -0.476 -13.129  0.00  0.00    +0.000 A 
ATOM      5  C   UNL     1       1.706   0.649 -12.484  0.00  0.00    +0.000 A 
ATOM      6  C   UNL     1       1.438  -1.623 -13.260  0.00  0.00    +0.000 A 
ATOM      7  H   UNL     1       0.045   1.532 -11.494  0.00  0.00    +0.000 HD
ATOM      8  H   UNL     1      -0.455  -2.548 -12.858  0.00  0.00    +0.000 HD
ATOM      9  H   UNL     1       2.310   1.546 -12.382  0.00  0.00    +0.000 HD
ATOM     10  H   UNL     1       1.774  -2.531 -13.750  0.00  0.00    +0.000 HD
ENDROOT
BRANCH   1  11
ATOM     11  C   UNL     1      -1.726  -0.544 -11.568  0.00  0.00    +0.000 C 
ATOM     12  C   UNL     1      -2.061  -0.510 -10.259  0.00  0.00    +0.000 C 
ATOM     13  H   UNL     1      -2.525  -0.605 -12.304  0.00  0.00    +0.000 HD
ATOM     14  H   UNL     1      -1.301  -0.475  -9.484  0.00  0.00    +0.000 HD
BRANCH  12  15
ATOM     15  C   UNL     1      -3.467  -0.546  -9.754  0.00  0.00    +0.000 C 
ATOM     16  H   UNL     1      -4.105   0.082 -10.384  0.00  0.00    +0.000 HD
ATOM     17  H   UNL     1      -3.849  -1.571  -9.789  0.00  0.00    +0.000 HD
ATOM     18  H   UNL     1      -3.546  -0.187  -8.724  0.00  0.00    +0.000 HD
ENDBRANCH  12  15
ENDBRANCH   1  11
BRANCH   4  19
ATOM     19  O   UNL     1       3.486  -0.454 -13.630  0.00  0.00    +0.000 OA
BRANCH  19  20
ATOM     20  C   UNL     1       3.713   0.353 -14.784  0.00  0.00    +0.000 C 
ATOM     21  H   UNL     1       4.704   0.820 -14.760  0.00  0.00    +0.000 HD
ATOM     22  H   UNL     1       2.913   1.087 -14.926  0.00  0.00    +0.000 HD
ATOM     23  H   UNL     1       3.694  -0.312 -15.653  0.00  0.00    +0.000 HD
ENDBRANCH  19  20
ENDBRANCH   4  19
TORSDOF 4
ENDMDL
MODEL 9
REMARK VINA RESULT:    -4.675      8.303      9.641
REMARK INTER + INTRA:          -5.658
REMARK INTER:                  -5.495
REMARK INTRA:                  -0.164
REMARK UNBOUND:                -0.164
REMARK  Name = 637563
REMARK  4 active torsions:
REMARK  status: ('A' for Active; 'I' for Inactive)
REMARK    1  A    between atoms: O_1  and  C_5
REMARK    2  A    between atoms: O_1  and  C_11
REMARK    3  A    between atoms: C_2  and  C_8
REMARK    4  A    between atoms: C_9  and  C_10
REMARK                            x       y       z     vdW  Elec       q    Type
REMARK                         _______ _______ _______ _____ _____    ______ ____
ROOT
ATOM      1  C   UNL     1      -1.639  -0.498 -11.640  0.00  0.00    +0.000 A 
ATOM      2  C   UNL     1      -1.765  -0.519 -10.251  0.00  0.00    +0.000 A 
ATOM      3  C   UNL     1      -2.780  -0.449 -12.443  0.00  0.00    +0.000 A 
ATOM      4  C   UNL     1      -4.170  -0.442 -10.466  0.00  0.00    +0.000 A 
ATOM      5  C   UNL     1      -3.030  -0.491  -9.664  0.00  0.00    +0.000 A 
ATOM      6  C   UNL     1      -4.045  -0.421 -11.856  0.00  0.00    +0.000 A 
ATOM      7  H   UNL     1      -0.907  -0.578  -9.588  0.00  0.00    +0.000 HD
ATOM      8  H   UNL     1      -2.701  -0.431 -13.527  0.00  0.00    +0.000 HD
ATOM      9  H   UNL     1      -3.122  -0.513  -8.582  0.00  0.00    +0.000 HD
ATOM     10  H   UNL     1      -4.888  -0.383 -12.537  0.00  0.00    +0.000 HD
ENDROOT
BRANCH   1  11
ATOM     11  C   UNL     1      -0.321  -0.528 -12.253  0.00  0.00    +0.000 C 
ATOM     12  C   UNL     1       0.587   0.473 -12.227  0.00  0.00    +0.000 C 
ATOM     13  H   UNL     1      -0.066  -1.443 -12.784  0.00  0.00    +0.000 HD
ATOM     14  H   UNL     1       0.372   1.416 -11.733  0.00  0.00    +0.000 HD
BRANCH  12  15
ATOM     15  C   UNL     1       1.930   0.401 -12.879  0.00  0.00    +0.000 C 
ATOM     16  H   UNL     1       1.926   0.983 -13.806  0.00  0.00    +0.000 HD
ATOM     17  H   UNL     1       2.690   0.820 -12.213  0.00  0.00    +0.000 HD
ATOM     18  H   UNL     1       2.217  -0.626 -13.122  0.00  0.00    +0.000 HD
ENDBRANCH  12  15
ENDBRANCH   1  11
BRANCH   4  19
ATOM     19  O   UNL     1      -5.404  -0.415  -9.894  0.00  0.00    +0.000 OA
BRANCH  19  20
ATOM     20  C   UNL     1      -6.446  -1.124 -10.563  0.00  0.00    +0.000 C 
ATOM     21  H   UNL     1      -6.488  -0.868 -11.627  0.00  0.00    +0.000 HD
ATOM     22  H   UNL     1      -7.412  -0.986 -10.065  0.00  0.00    +0.000 HD
ATOM     23  H   UNL     1      -6.204  -2.190 -10.500  0.00  0.00    +0.000 HD
ENDBRANCH  19  20
ENDBRANCH   4  19
TORSDOF 4
ENDMDL
MODEL 10
REMARK VINA RESULT:    -4.661     24.578     25.610
REMARK INTER + INTRA:          -5.641
REMARK INTER:                  -5.464
REMARK INTRA:                  -0.178
REMARK UNBOUND:                -0.164
REMARK  Name = 637563
REMARK  4 active torsions:
REMARK  status: ('A' for Active; 'I' for Inactive)
REMARK    1  A    between atoms: O_1  and  C_5
REMARK    2  A    between atoms: O_1  and  C_11
REMARK    3  A    between atoms: C_2  and  C_8
REMARK    4  A    between atoms: C_9  and  C_10
REMARK                            x       y       z     vdW  Elec       q    Type
REMARK                         _______ _______ _______ _____ _____    ______ ____
ROOT
ATOM      1  C   UNL     1     -20.953  -2.463   4.634  0.00  0.00    +0.000 A 
ATOM      2  C   UNL     1     -21.145  -2.113   3.298  0.00  0.00    +0.000 A 
ATOM      3  C   UNL     1     -20.438  -3.719   4.960  0.00  0.00    +0.000 A 
ATOM      4  C   UNL     1     -20.306  -4.273   2.611  0.00  0.00    +0.000 A 
ATOM      5  C   UNL     1     -20.822  -3.017   2.286  0.00  0.00    +0.000 A 
ATOM      6  C   UNL     1     -20.115  -4.623   3.948  0.00  0.00    +0.000 A 
ATOM      7  H   UNL     1     -21.561  -1.156   2.998  0.00  0.00    +0.000 HD
ATOM      8  H   UNL     1     -20.281  -4.008   5.996  0.00  0.00    +0.000 HD
ATOM      9  H   UNL     1     -20.977  -2.741   1.247  0.00  0.00    +0.000 HD
ATOM     10  H   UNL     1     -19.719  -5.580   4.270  0.00  0.00    +0.000 HD
ENDROOT
BRANCH   1  11
ATOM     11  C   UNL     1     -21.290  -1.521   5.689  0.00  0.00    +0.000 C 
ATOM     12  C   UNL     1     -20.828  -1.556   6.960  0.00  0.00    +0.000 C 
ATOM     13  H   UNL     1     -21.986  -0.732   5.415  0.00  0.00    +0.000 HD
ATOM     14  H   UNL     1     -20.151  -2.338   7.292  0.00  0.00    +0.000 HD
BRANCH  12  15
ATOM     15  C   UNL     1     -21.210  -0.570   8.016  0.00  0.00    +0.000 C 
ATOM     16  H   UNL     1     -21.975   0.110   7.631  0.00  0.00    +0.000 HD
ATOM     17  H   UNL     1     -21.619  -1.095   8.884  0.00  0.00    +0.000 HD
ATOM     18  H   UNL     1     -20.357   0.029   8.349  0.00  0.00    +0.000 HD
ENDBRANCH  12  15
ENDBRANCH   1  11
BRANCH   4  19
ATOM     19  O   UNL     1     -19.992  -5.156   1.624  0.00  0.00    +0.000 OA
BRANCH  19  20
ATOM     20  C   UNL     1     -19.421  -6.400   2.024  0.00  0.00    +0.000 C 
ATOM     21  H   UNL     1     -19.061  -6.364   3.058  0.00  0.00    +0.000 HD
ATOM     22  H   UNL     1     -18.645  -6.730   1.326  0.00  0.00    +0.000 HD
ATOM     23  H   UNL     1     -20.220  -7.148   1.990  0.00  0.00    +0.000 HD
ENDBRANCH  19  20
ENDBRANCH   4  19
TORSDOF 4
ENDMDL
