MODEL 1
REMARK VINA RESULT:    -5.051      0.000      0.000
REMARK INTER + INTRA:          -8.252
REMARK INTER:                  -7.389
REMARK INTRA:                  -0.863
REMARK UNBOUND:                -0.395
REMARK  Name = 8186
REMARK  10 active torsions:
REMARK  status: ('A' for Active; 'I' for Inactive)
REMARK    1  A    between atoms: C_2  and  C_3
REMARK    2  A    between atoms: C_2  and  C_4
REMARK    3  A    between atoms: C_3  and  C_5
REMARK    4  A    between atoms: C_4  and  C_6
REMARK    5  A    between atoms: C_5  and  C_7
REMARK    6  A    between atoms: C_6  and  C_8
REMARK    7  A    between atoms: C_7  and  C_9
REMARK    8  A    between atoms: C_8  and  C_10
REMARK    9  A    between atoms: C_9  and  C_11
REMARK   10  A    between atoms: C_10  and  C_12
REMARK                            x       y       z     vdW  Elec       q    Type
REMARK                         _______ _______ _______ _____ _____    ______ ____
ROOT
ATOM      1  C   UNL     1      -2.692   9.739  -9.873  0.00  0.00    +0.000 C 
ATOM      2  H   UNL     1      -3.230  10.673  -9.673  0.00  0.00    +0.000 HD
ATOM      3  H   UNL     1      -3.215   9.242 -10.700  0.00  0.00    +0.000 HD
ENDROOT
BRANCH   1   4
ATOM      4  C   UNL     1      -2.755   8.844  -8.632  0.00  0.00    +0.000 C 
ATOM      5  H   UNL     1      -1.741   8.694  -8.240  0.00  0.00    +0.000 HD
ATOM      6  H   UNL     1      -3.324   9.361  -7.849  0.00  0.00    +0.000 HD
BRANCH   4   7
ATOM      7  C   UNL     1      -3.396   7.479  -8.901  0.00  0.00    +0.000 C 
ATOM      8  H   UNL     1      -3.146   6.799  -8.078  0.00  0.00    +0.000 HD
ATOM      9  H   UNL     1      -4.488   7.591  -8.898  0.00  0.00    +0.000 HD
BRANCH   7  10
ATOM     10  C   UNL     1      -2.955   6.850 -10.224  0.00  0.00    +0.000 C 
ATOM     11  H   UNL     1      -2.129   7.433 -10.651  0.00  0.00    +0.000 HD
ATOM     12  H   UNL     1      -2.573   5.838 -10.036  0.00  0.00    +0.000 HD
BRANCH  10  13
ATOM     13  C   UNL     1      -4.112   6.788 -11.221  0.00  0.00    +0.000 C 
ATOM     14  H   UNL     1      -4.873   7.530 -10.955  0.00  0.00    +0.000 HD
ATOM     15  H   UNL     1      -4.591   5.802 -11.177  0.00  0.00    +0.000 HD
BRANCH  13  16
ATOM     16  C   UNL     1      -3.637   7.045 -12.643  0.00  0.00    +0.000 C 
ATOM     17  H   UNL     1      -2.595   6.736 -12.770  0.00  0.00    +0.000 HD
ATOM     18  H   UNL     1      -4.248   6.480 -13.354  0.00  0.00    +0.000 HD
ATOM     19  H   UNL     1      -3.715   8.107 -12.895  0.00  0.00    +0.000 HD
ENDBRANCH  13  16
ENDBRANCH  10  13
ENDBRANCH   7  10
ENDBRANCH   4   7
ENDBRANCH   1   4
BRANCH   1  20
ATOM     20  C   UNL     1      -1.261  10.067 -10.311  0.00  0.00    +0.000 C 
ATOM     21  H   UNL     1      -0.982  11.050  -9.911  0.00  0.00    +0.000 HD
ATOM     22  H   UNL     1      -0.574   9.338  -9.863  0.00  0.00    +0.000 HD
BRANCH  20  23
ATOM     23  C   UNL     1      -1.075  10.067 -11.830  0.00  0.00    +0.000 C 
ATOM     24  H   UNL     1      -2.056  10.117 -12.319  0.00  0.00    +0.000 HD
ATOM     25  H   UNL     1      -0.518  10.963 -12.129  0.00  0.00    +0.000 HD
BRANCH  23  26
ATOM     26  C   UNL     1      -0.330   8.816 -12.296  0.00  0.00    +0.000 C 
ATOM     27  H   UNL     1       0.735   8.909 -12.048  0.00  0.00    +0.000 HD
ATOM     28  H   UNL     1      -0.707   7.943 -11.749  0.00  0.00    +0.000 HD
BRANCH  26  29
ATOM     29  C   UNL     1      -0.491   8.600 -13.797  0.00  0.00    +0.000 C 
ATOM     30  H   UNL     1      -1.469   8.954 -14.141  0.00  0.00    +0.000 HD
ATOM     31  H   UNL     1      -0.393   7.540 -14.051  0.00  0.00    +0.000 HD
BRANCH  29  33
ATOM     32  O   UNL     1       0.960   9.039 -15.667  0.00  0.00    +0.000 OA
ATOM     33  C   UNL     1       0.571   9.358 -14.548  0.00  0.00    +0.000 C 
ATOM     34  H   UNL     1       0.993  10.232 -14.026  0.00  0.00    +0.000 HD
ENDBRANCH  29  33
ENDBRANCH  26  29
ENDBRANCH  23  26
ENDBRANCH  20  23
ENDBRANCH   1  20
TORSDOF 10
ENDMDL
MODEL 2
REMARK VINA RESULT:    -4.965     13.355     14.865
REMARK INTER + INTRA:          -8.117
REMARK INTER:                  -6.842
REMARK INTRA:                  -1.276
REMARK UNBOUND:                -0.395
REMARK  Name = 8186
REMARK  10 active torsions:
REMARK  status: ('A' for Active; 'I' for Inactive)
REMARK    1  A    between atoms: C_2  and  C_3
REMARK    2  A    between atoms: C_2  and  C_4
REMARK    3  A    between atoms: C_3  and  C_5
REMARK    4  A    between atoms: C_4  and  C_6
REMARK    5  A    between atoms: C_5  and  C_7
REMARK    6  A    between atoms: C_6  and  C_8
REMARK    7  A    between atoms: C_7  and  C_9
REMARK    8  A    between atoms: C_8  and  C_10
REMARK    9  A    between atoms: C_9  and  C_11
REMARK   10  A    between atoms: C_10  and  C_12
REMARK                            x       y       z     vdW  Elec       q    Type
REMARK                         _______ _______ _______ _____ _____    ______ ____
ROOT
ATOM      1  C   UNL     1       5.837   7.829   2.633  0.00  0.00    +0.000 C 
ATOM      2  H   UNL     1       5.553   7.699   1.582  0.00  0.00    +0.000 HD
ATOM      3  H   UNL     1       5.998   6.824   3.044  0.00  0.00    +0.000 HD
ENDROOT
BRANCH   1   4
ATOM      4  C   UNL     1       4.686   8.498   3.388  0.00  0.00    +0.000 C 
ATOM      5  H   UNL     1       4.069   7.729   3.868  0.00  0.00    +0.000 HD
ATOM      6  H   UNL     1       5.100   9.120   4.192  0.00  0.00    +0.000 HD
BRANCH   4   7
ATOM      7  C   UNL     1       3.796   9.365   2.491  0.00  0.00    +0.000 C 
ATOM      8  H   UNL     1       2.814   9.479   2.965  0.00  0.00    +0.000 HD
ATOM      9  H   UNL     1       4.232  10.371   2.421  0.00  0.00    +0.000 HD
BRANCH   7  10
ATOM     10  C   UNL     1       3.610   8.794   1.083  0.00  0.00    +0.000 C 
ATOM     11  H   UNL     1       4.322   7.974   0.923  0.00  0.00    +0.000 HD
ATOM     12  H   UNL     1       2.603   8.370   0.993  0.00  0.00    +0.000 HD
BRANCH  10  13
ATOM     13  C   UNL     1       3.815   9.870   0.017  0.00  0.00    +0.000 C 
ATOM     14  H   UNL     1       2.975   9.862  -0.687  0.00  0.00    +0.000 HD
ATOM     15  H   UNL     1       4.723   9.657  -0.559  0.00  0.00    +0.000 HD
BRANCH  13  16
ATOM     16  C   UNL     1       3.935  11.254   0.637  0.00  0.00    +0.000 C 
ATOM     17  H   UNL     1       4.365  11.197   1.642  0.00  0.00    +0.000 HD
ATOM     18  H   UNL     1       4.584  11.888   0.025  0.00  0.00    +0.000 HD
ATOM     19  H   UNL     1       2.955  11.737   0.709  0.00  0.00    +0.000 HD
ENDBRANCH  13  16
ENDBRANCH  10  13
ENDBRANCH   7  10
ENDBRANCH   4   7
ENDBRANCH   1   4
BRANCH   1  20
ATOM     20  C   UNL     1       7.148   8.618   2.706  0.00  0.00    +0.000 C 
ATOM     21  H   UNL     1       7.048   9.407   3.462  0.00  0.00    +0.000 HD
ATOM     22  H   UNL     1       7.948   7.950   3.050  0.00  0.00    +0.000 HD
BRANCH  20  23
ATOM     23  C   UNL     1       7.555   9.244   1.370  0.00  0.00    +0.000 C 
ATOM     24  H   UNL     1       7.085  10.229   1.269  0.00  0.00    +0.000 HD
ATOM     25  H   UNL     1       8.640   9.400   1.357  0.00  0.00    +0.000 HD
BRANCH  23  26
ATOM     26  C   UNL     1       7.146   8.355   0.196  0.00  0.00    +0.000 C 
ATOM     27  H   UNL     1       7.739   7.431   0.211  0.00  0.00    +0.000 HD
ATOM     28  H   UNL     1       6.096   8.059   0.311  0.00  0.00    +0.000 HD
BRANCH  26  29
ATOM     29  C   UNL     1       7.343   9.070  -1.136  0.00  0.00    +0.000 C 
ATOM     30  H   UNL     1       6.453   8.977  -1.767  0.00  0.00    +0.000 HD
ATOM     31  H   UNL     1       8.200   8.656  -1.678  0.00  0.00    +0.000 HD
BRANCH  29  33
ATOM     32  O   UNL     1       6.862  11.422  -1.318  0.00  0.00    +0.000 OA
ATOM     33  C   UNL     1       7.603  10.535  -0.907  0.00  0.00    +0.000 C 
ATOM     34  H   UNL     1       8.517  10.774  -0.339  0.00  0.00    +0.000 HD
ENDBRANCH  29  33
ENDBRANCH  26  29
ENDBRANCH  23  26
ENDBRANCH  20  23
ENDBRANCH   1  20
TORSDOF 10
ENDMDL
MODEL 3
REMARK VINA RESULT:    -4.853     13.763     15.573
REMARK INTER + INTRA:          -7.944
REMARK INTER:                  -6.996
REMARK INTRA:                  -0.948
REMARK UNBOUND:                -0.395
REMARK  Name = 8186
REMARK  10 active torsions:
REMARK  status: ('A' for Active; 'I' for Inactive)
REMARK    1  A    between atoms: C_2  and  C_3
REMARK    2  A    between atoms: C_2  and  C_4
REMARK    3  A    between atoms: C_3  and  C_5
REMARK    4  A    between atoms: C_4  and  C_6
REMARK    5  A    between atoms: C_5  and  C_7
REMARK    6  A    between atoms: C_6  and  C_8
REMARK    7  A    between atoms: C_7  and  C_9
REMARK    8  A    between atoms: C_8  and  C_10
REMARK    9  A    between atoms: C_9  and  C_11
REMARK   10  A    between atoms: C_10  and  C_12
REMARK                            x       y       z     vdW  Elec       q    Type
REMARK                         _______ _______ _______ _____ _____    ______ ____
ROOT
ATOM      1  C   UNL     1       7.478   9.027   1.365  0.00  0.00    +0.000 C 
ATOM      2  H   UNL     1       8.514   8.736   1.151  0.00  0.00    +0.000 HD
ATOM      3  H   UNL     1       7.451  10.124   1.360  0.00  0.00    +0.000 HD
ENDROOT
BRANCH   1   4
ATOM      4  C   UNL     1       7.089   8.522   2.756  0.00  0.00    +0.000 C 
ATOM      5  H   UNL     1       7.996   8.349   3.348  0.00  0.00    +0.000 HD
ATOM      6  H   UNL     1       6.519   9.306   3.273  0.00  0.00    +0.000 HD
BRANCH   4   7
ATOM      7  C   UNL     1       6.257   7.236   2.723  0.00  0.00    +0.000 C 
ATOM      8  H   UNL     1       6.100   6.939   1.679  0.00  0.00    +0.000 HD
ATOM      9  H   UNL     1       6.830   6.429   3.199  0.00  0.00    +0.000 HD
BRANCH   7  10
ATOM     10  C   UNL     1       4.899   7.371   3.415  0.00  0.00    +0.000 C 
ATOM     11  H   UNL     1       4.097   7.250   2.678  0.00  0.00    +0.000 HD
ATOM     12  H   UNL     1       4.786   6.567   4.153  0.00  0.00    +0.000 HD
BRANCH  10  13
ATOM     13  C   UNL     1       4.763   8.728   4.106  0.00  0.00    +0.000 C 
ATOM     14  H   UNL     1       3.731   9.090   4.018  0.00  0.00    +0.000 HD
ATOM     15  H   UNL     1       5.408   9.465   3.613  0.00  0.00    +0.000 HD
BRANCH  13  16
ATOM     16  C   UNL     1       5.139   8.645   5.577  0.00  0.00    +0.000 C 
ATOM     17  H   UNL     1       6.214   8.795   5.716  0.00  0.00    +0.000 HD
ATOM     18  H   UNL     1       4.611   9.416   6.147  0.00  0.00    +0.000 HD
ATOM     19  H   UNL     1       4.871   7.669   5.995  0.00  0.00    +0.000 HD
ENDBRANCH  13  16
ENDBRANCH  10  13
ENDBRANCH   7  10
ENDBRANCH   4   7
ENDBRANCH   1   4
BRANCH   1  20
ATOM     20  C   UNL     1       6.567   8.498   0.252  0.00  0.00    +0.000 C 
ATOM     21  H   UNL     1       7.190   8.104  -0.562  0.00  0.00    +0.000 HD
ATOM     22  H   UNL     1       5.983   7.655   0.640  0.00  0.00    +0.000 HD
BRANCH  20  23
ATOM     23  C   UNL     1       5.614   9.557  -0.307  0.00  0.00    +0.000 C 
ATOM     24  H   UNL     1       5.973  10.556  -0.031  0.00  0.00    +0.000 HD
ATOM     25  H   UNL     1       5.613   9.504  -1.402  0.00  0.00    +0.000 HD
BRANCH  23  26
ATOM     26  C   UNL     1       4.193   9.356   0.221  0.00  0.00    +0.000 C 
ATOM     27  H   UNL     1       3.497   9.266  -0.622  0.00  0.00    +0.000 HD
ATOM     28  H   UNL     1       4.142   8.411   0.777  0.00  0.00    +0.000 HD
BRANCH  26  29
ATOM     29  C   UNL     1       3.766  10.512   1.119  0.00  0.00    +0.000 C 
ATOM     30  H   UNL     1       4.479  10.657   1.938  0.00  0.00    +0.000 HD
ATOM     31  H   UNL     1       2.775  10.329   1.545  0.00  0.00    +0.000 HD
BRANCH  29  33
ATOM     32  O   UNL     1       3.047  11.907  -0.708  0.00  0.00    +0.000 OA
ATOM     33  C   UNL     1       3.701  11.789   0.325  0.00  0.00    +0.000 C 
ATOM     34  H   UNL     1       4.287  12.632   0.727  0.00  0.00    +0.000 HD
ENDBRANCH  29  33
ENDBRANCH  26  29
ENDBRANCH  23  26
ENDBRANCH  20  23
ENDBRANCH   1  20
TORSDOF 10
ENDMDL
MODEL 4
REMARK VINA RESULT:    -4.849     14.305     16.162
REMARK INTER + INTRA:          -7.937
REMARK INTER:                  -6.985
REMARK INTRA:                  -0.952
REMARK UNBOUND:                -0.395
REMARK  Name = 8186
REMARK  10 active torsions:
REMARK  status: ('A' for Active; 'I' for Inactive)
REMARK    1  A    between atoms: C_2  and  C_3
REMARK    2  A    between atoms: C_2  and  C_4
REMARK    3  A    between atoms: C_3  and  C_5
REMARK    4  A    between atoms: C_4  and  C_6
REMARK    5  A    between atoms: C_5  and  C_7
REMARK    6  A    between atoms: C_6  and  C_8
REMARK    7  A    between atoms: C_7  and  C_9
REMARK    8  A    between atoms: C_8  and  C_10
REMARK    9  A    between atoms: C_9  and  C_11
REMARK   10  A    between atoms: C_10  and  C_12
REMARK                            x       y       z     vdW  Elec       q    Type
REMARK                         _______ _______ _______ _____ _____    ______ ____
ROOT
ATOM      1  C   UNL     1       7.884   9.998   0.405  0.00  0.00    +0.000 C 
ATOM      2  H   UNL     1       8.522  10.352   1.224  0.00  0.00    +0.000 HD
ATOM      3  H   UNL     1       8.549   9.768  -0.437  0.00  0.00    +0.000 HD
ENDROOT
BRANCH   1   4
ATOM      4  C   UNL     1       6.925  11.118  -0.007  0.00  0.00    +0.000 C 
ATOM      5  H   UNL     1       6.492  11.575   0.892  0.00  0.00    +0.000 HD
ATOM      6  H   UNL     1       7.493  11.904  -0.520  0.00  0.00    +0.000 HD
BRANCH   4   7
ATOM      7  C   UNL     1       5.792  10.640  -0.921  0.00  0.00    +0.000 C 
ATOM      8  H   UNL     1       5.926  11.081  -1.916  0.00  0.00    +0.000 HD
ATOM      9  H   UNL     1       5.869   9.551  -1.045  0.00  0.00    +0.000 HD
BRANCH   7  10
ATOM     10  C   UNL     1       4.398  10.993  -0.398  0.00  0.00    +0.000 C 
ATOM     11  H   UNL     1       4.484  11.738   0.403  0.00  0.00    +0.000 HD
ATOM     12  H   UNL     1       3.813  11.452  -1.205  0.00  0.00    +0.000 HD
BRANCH  10  13
ATOM     13  C   UNL     1       3.672   9.754   0.125  0.00  0.00    +0.000 C 
ATOM     14  H   UNL     1       4.205   8.849  -0.190  0.00  0.00    +0.000 HD
ATOM     15  H   UNL     1       2.664   9.702  -0.303  0.00  0.00    +0.000 HD
BRANCH  13  16
ATOM     16  C   UNL     1       3.566   9.769   1.642  0.00  0.00    +0.000 C 
ATOM     17  H   UNL     1       2.672   9.234   1.978  0.00  0.00    +0.000 HD
ATOM     18  H   UNL     1       4.440   9.286   2.089  0.00  0.00    +0.000 HD
ATOM     19  H   UNL     1       3.514  10.795   2.020  0.00  0.00    +0.000 HD
ENDBRANCH  13  16
ENDBRANCH  10  13
ENDBRANCH   7  10
ENDBRANCH   4   7
ENDBRANCH   1   4
BRANCH   1  20
ATOM     20  C   UNL     1       7.167   8.717   0.843  0.00  0.00    +0.000 C 
ATOM     21  H   UNL     1       6.156   8.710   0.416  0.00  0.00    +0.000 HD
ATOM     22  H   UNL     1       7.694   7.851   0.423  0.00  0.00    +0.000 HD
BRANCH  20  23
ATOM     23  C   UNL     1       7.075   8.562   2.363  0.00  0.00    +0.000 C 
ATOM     24  H   UNL     1       8.081   8.436   2.780  0.00  0.00    +0.000 HD
ATOM     25  H   UNL     1       6.656   9.478   2.798  0.00  0.00    +0.000 HD
BRANCH  23  26
ATOM     26  C   UNL     1       6.204   7.364   2.745  0.00  0.00    +0.000 C 
ATOM     27  H   UNL     1       5.198   7.495   2.329  0.00  0.00    +0.000 HD
ATOM     28  H   UNL     1       6.619   6.455   2.293  0.00  0.00    +0.000 HD
BRANCH  26  29
ATOM     29  C   UNL     1       6.118   7.202   4.259  0.00  0.00    +0.000 C 
ATOM     30  H   UNL     1       7.074   6.866   4.673  0.00  0.00    +0.000 HD
ATOM     31  H   UNL     1       5.344   6.476   4.529  0.00  0.00    +0.000 HD
BRANCH  29  33
ATOM     32  O   UNL     1       4.616   8.936   4.993  0.00  0.00    +0.000 OA
ATOM     33  C   UNL     1       5.766   8.516   4.903  0.00  0.00    +0.000 C 
ATOM     34  H   UNL     1       6.616   9.098   5.296  0.00  0.00    +0.000 HD
ENDBRANCH  29  33
ENDBRANCH  26  29
ENDBRANCH  23  26
ENDBRANCH  20  23
ENDBRANCH   1  20
TORSDOF 10
ENDMDL
MODEL 5
REMARK VINA RESULT:    -4.716     13.327     15.110
REMARK INTER + INTRA:          -7.731
REMARK INTER:                  -6.867
REMARK INTRA:                  -0.865
REMARK UNBOUND:                -0.395
REMARK  Name = 8186
REMARK  10 active torsions:
REMARK  status: ('A' for Active; 'I' for Inactive)
REMARK    1  A    between atoms: C_2  and  C_3
REMARK    2  A    between atoms: C_2  and  C_4
REMARK    3  A    between atoms: C_3  and  C_5
REMARK    4  A    between atoms: C_4  and  C_6
REMARK    5  A    between atoms: C_5  and  C_7
REMARK    6  A    between atoms: C_6  and  C_8
REMARK    7  A    between atoms: C_7  and  C_9
REMARK    8  A    between atoms: C_8  and  C_10
REMARK    9  A    between atoms: C_9  and  C_11
REMARK   10  A    between atoms: C_10  and  C_12
REMARK                            x       y       z     vdW  Elec       q    Type
REMARK                         _______ _______ _______ _____ _____    ______ ____
ROOT
ATOM      1  C   UNL     1       5.628   8.606   3.196  0.00  0.00    +0.000 C 
ATOM      2  H   UNL     1       5.559   9.700   3.220  0.00  0.00    +0.000 HD
ATOM      3  H   UNL     1       5.808   8.277   4.227  0.00  0.00    +0.000 HD
ENDROOT
BRANCH   1   4
ATOM      4  C   UNL     1       6.816   8.193   2.324  0.00  0.00    +0.000 C 
ATOM      5  H   UNL     1       7.321   7.334   2.781  0.00  0.00    +0.000 HD
ATOM      6  H   UNL     1       6.442   7.859   1.348  0.00  0.00    +0.000 HD
BRANCH   4   7
ATOM      7  C   UNL     1       7.833   9.320   2.114  0.00  0.00    +0.000 C 
ATOM      8  H   UNL     1       7.480  10.221   2.629  0.00  0.00    +0.000 HD
ATOM      9  H   UNL     1       8.782   9.036   2.589  0.00  0.00    +0.000 HD
BRANCH   7  10
ATOM     10  C   UNL     1       8.081   9.648   0.640  0.00  0.00    +0.000 C 
ATOM     11  H   UNL     1       7.753  10.674   0.432  0.00  0.00    +0.000 HD
ATOM     12  H   UNL     1       9.157   9.604   0.434  0.00  0.00    +0.000 HD
BRANCH  10  13
ATOM     13  C   UNL     1       7.340   8.675  -0.276  0.00  0.00    +0.000 C 
ATOM     14  H   UNL     1       6.260   8.855  -0.216  0.00  0.00    +0.000 HD
ATOM     15  H   UNL     1       7.515   7.644   0.053  0.00  0.00    +0.000 HD
BRANCH  13  16
ATOM     16  C   UNL     1       7.790   8.817  -1.722  0.00  0.00    +0.000 C 
ATOM     17  H   UNL     1       6.931   8.855  -2.399  0.00  0.00    +0.000 HD
ATOM     18  H   UNL     1       8.366   9.739  -1.850  0.00  0.00    +0.000 HD
ATOM     19  H   UNL     1       8.425   7.976  -2.018  0.00  0.00    +0.000 HD
ENDBRANCH  13  16
ENDBRANCH  10  13
ENDBRANCH   7  10
ENDBRANCH   4   7
ENDBRANCH   1   4
BRANCH   1  20
ATOM     20  C   UNL     1       4.293   8.029   2.713  0.00  0.00    +0.000 C 
ATOM     21  H   UNL     1       4.483   7.331   1.888  0.00  0.00    +0.000 HD
ATOM     22  H   UNL     1       3.841   7.445   3.524  0.00  0.00    +0.000 HD
BRANCH  20  23
ATOM     23  C   UNL     1       3.301   9.100   2.251  0.00  0.00    +0.000 C 
ATOM     24  H   UNL     1       2.479   8.626   1.701  0.00  0.00    +0.000 HD
ATOM     25  H   UNL     1       2.862   9.592   3.127  0.00  0.00    +0.000 HD
BRANCH  23  26
ATOM     26  C   UNL     1       3.984  10.140   1.362  0.00  0.00    +0.000 C 
ATOM     27  H   UNL     1       3.532  11.125   1.536  0.00  0.00    +0.000 HD
ATOM     28  H   UNL     1       5.041  10.222   1.644  0.00  0.00    +0.000 HD
BRANCH  26  29
ATOM     29  C   UNL     1       3.865   9.773  -0.113  0.00  0.00    +0.000 C 
ATOM     30  H   UNL     1       3.054   9.054  -0.274  0.00  0.00    +0.000 HD
ATOM     31  H   UNL     1       4.798   9.337  -0.483  0.00  0.00    +0.000 HD
BRANCH  29  33
ATOM     32  O   UNL     1       3.171  12.055  -0.445  0.00  0.00    +0.000 OA
ATOM     33  C   UNL     1       3.570  11.001  -0.932  0.00  0.00    +0.000 C 
ATOM     34  H   UNL     1       3.732  10.901  -2.018  0.00  0.00    +0.000 HD
ENDBRANCH  29  33
ENDBRANCH  26  29
ENDBRANCH  23  26
ENDBRANCH  20  23
ENDBRANCH   1  20
TORSDOF 10
ENDMDL
MODEL 6
REMARK VINA RESULT:    -4.617     18.269     20.762
REMARK INTER + INTRA:          -7.577
REMARK INTER:                  -6.562
REMARK INTRA:                  -1.015
REMARK UNBOUND:                -0.395
REMARK  Name = 8186
REMARK  10 active torsions:
REMARK  status: ('A' for Active; 'I' for Inactive)
REMARK    1  A    between atoms: C_2  and  C_3
REMARK    2  A    between atoms: C_2  and  C_4
REMARK    3  A    between atoms: C_3  and  C_5
REMARK    4  A    between atoms: C_4  and  C_6
REMARK    5  A    between atoms: C_5  and  C_7
REMARK    6  A    between atoms: C_6  and  C_8
REMARK    7  A    between atoms: C_7  and  C_9
REMARK    8  A    between atoms: C_8  and  C_10
REMARK    9  A    between atoms: C_9  and  C_11
REMARK   10  A    between atoms: C_10  and  C_12
REMARK                            x       y       z     vdW  Elec       q    Type
REMARK                         _______ _______ _______ _____ _____    ______ ____
ROOT
ATOM      1  C   UNL     1      -8.079  10.742   5.545  0.00  0.00    +0.000 C 
ATOM      2  H   UNL     1      -7.408  10.400   6.342  0.00  0.00    +0.000 HD
ATOM      3  H   UNL     1      -8.476   9.843   5.057  0.00  0.00    +0.000 HD
ENDROOT
BRANCH   1   4
ATOM      4  C   UNL     1      -7.278  11.554   4.524  0.00  0.00    +0.000 C 
ATOM      5  H   UNL     1      -6.226  11.246   4.559  0.00  0.00    +0.000 HD
ATOM      6  H   UNL     1      -7.644  11.320   3.516  0.00  0.00    +0.000 HD
BRANCH   4   7
ATOM      7  C   UNL     1      -7.365  13.067   4.750  0.00  0.00    +0.000 C 
ATOM      8  H   UNL     1      -7.455  13.569   3.780  0.00  0.00    +0.000 HD
ATOM      9  H   UNL     1      -8.284  13.292   5.309  0.00  0.00    +0.000 HD
BRANCH   7  10
ATOM     10  C   UNL     1      -6.162  13.640   5.502  0.00  0.00    +0.000 C 
ATOM     11  H   UNL     1      -5.449  12.835   5.722  0.00  0.00    +0.000 HD
ATOM     12  H   UNL     1      -5.644  14.364   4.861  0.00  0.00    +0.000 HD
BRANCH  10  13
ATOM     13  C   UNL     1      -6.592  14.318   6.803  0.00  0.00    +0.000 C 
ATOM     14  H   UNL     1      -7.673  14.502   6.787  0.00  0.00    +0.000 HD
ATOM     15  H   UNL     1      -6.098  15.292   6.897  0.00  0.00    +0.000 HD
BRANCH  13  16
ATOM     16  C   UNL     1      -6.247  13.467   8.015  0.00  0.00    +0.000 C 
ATOM     17  H   UNL     1      -5.617  12.618   7.732  0.00  0.00    +0.000 HD
ATOM     18  H   UNL     1      -5.702  14.064   8.754  0.00  0.00    +0.000 HD
ATOM     19  H   UNL     1      -7.152  13.080   8.492  0.00  0.00    +0.000 HD
ENDBRANCH  13  16
ENDBRANCH  10  13
ENDBRANCH   7  10
ENDBRANCH   4   7
ENDBRANCH   1   4
BRANCH   1  20
ATOM     20  C   UNL     1      -9.239  11.528   6.168  0.00  0.00    +0.000 C 
ATOM     21  H   UNL     1      -9.074  12.600   6.001  0.00  0.00    +0.000 HD
ATOM     22  H   UNL     1     -10.168  11.266   5.646  0.00  0.00    +0.000 HD
BRANCH  20  23
ATOM     23  C   UNL     1      -9.412  11.269   7.666  0.00  0.00    +0.000 C 
ATOM     24  H   UNL     1      -9.074  12.146   8.231  0.00  0.00    +0.000 HD
ATOM     25  H   UNL     1     -10.476  11.128   7.891  0.00  0.00    +0.000 HD
BRANCH  23  26
ATOM     26  C   UNL     1      -8.623  10.036   8.109  0.00  0.00    +0.000 C 
ATOM     27  H   UNL     1      -9.315   9.207   8.303  0.00  0.00    +0.000 HD
ATOM     28  H   UNL     1      -7.964   9.713   7.293  0.00  0.00    +0.000 HD
BRANCH  26  29
ATOM     29  C   UNL     1      -7.801  10.323   9.361  0.00  0.00    +0.000 C 
ATOM     30  H   UNL     1      -8.366  10.939  10.068  0.00  0.00    +0.000 HD
ATOM     31  H   UNL     1      -6.872  10.844   9.107  0.00  0.00    +0.000 HD
BRANCH  29  33
ATOM     32  O   UNL     1      -8.269   8.220  10.438  0.00  0.00    +0.000 OA
ATOM     33  C   UNL     1      -7.437   9.035  10.050  0.00  0.00    +0.000 C 
ATOM     34  H   UNL     1      -6.358   8.860  10.195  0.00  0.00    +0.000 HD
ENDBRANCH  29  33
ENDBRANCH  26  29
ENDBRANCH  23  26
ENDBRANCH  20  23
ENDBRANCH   1  20
TORSDOF 10
ENDMDL
MODEL 7
REMARK VINA RESULT:    -4.616     13.957     15.720
REMARK INTER + INTRA:          -7.575
REMARK INTER:                  -6.555
REMARK INTRA:                  -1.020
REMARK UNBOUND:                -0.395
REMARK  Name = 8186
REMARK  10 active torsions:
REMARK  status: ('A' for Active; 'I' for Inactive)
REMARK    1  A    between atoms: C_2  and  C_3
REMARK    2  A    between atoms: C_2  and  C_4
REMARK    3  A    between atoms: C_3  and  C_5
REMARK    4  A    between atoms: C_4  and  C_6
REMARK    5  A    between atoms: C_5  and  C_7
REMARK    6  A    between atoms: C_6  and  C_8
REMARK    7  A    between atoms: C_7  and  C_9
REMARK    8  A    between atoms: C_8  and  C_10
REMARK    9  A    between atoms: C_9  and  C_11
REMARK   10  A    between atoms: C_10  and  C_12
REMARK                            x       y       z     vdW  Elec       q    Type
REMARK                         _______ _______ _______ _____ _____    ______ ____
ROOT
ATOM      1  C   UNL     1       4.154  10.486   0.185  0.00  0.00    +0.000 C 
ATOM      2  H   UNL     1       3.238  10.972  -0.173  0.00  0.00    +0.000 HD
ATOM      3  H   UNL     1       4.392  10.934   1.157  0.00  0.00    +0.000 HD
ENDROOT
BRANCH   1   4
ATOM      4  C   UNL     1       5.295  10.777  -0.793  0.00  0.00    +0.000 C 
ATOM      5  H   UNL     1       5.551   9.859  -1.337  0.00  0.00    +0.000 HD
ATOM      6  H   UNL     1       4.947  11.501  -1.541  0.00  0.00    +0.000 HD
BRANCH   4   7
ATOM      7  C   UNL     1       6.553  11.323  -0.111  0.00  0.00    +0.000 C 
ATOM      8  H   UNL     1       7.084  11.978  -0.813  0.00  0.00    +0.000 HD
ATOM      9  H   UNL     1       6.254  11.949   0.741  0.00  0.00    +0.000 HD
BRANCH   7  10
ATOM     10  C   UNL     1       7.507  10.229   0.373  0.00  0.00    +0.000 C 
ATOM     11  H   UNL     1       8.523  10.635   0.452  0.00  0.00    +0.000 HD
ATOM     12  H   UNL     1       7.209   9.905   1.378  0.00  0.00    +0.000 HD
BRANCH  10  13
ATOM     13  C   UNL     1       7.503   9.031  -0.577  0.00  0.00    +0.000 C 
ATOM     14  H   UNL     1       6.561   9.003  -1.138  0.00  0.00    +0.000 HD
ATOM     15  H   UNL     1       7.565   8.099  -0.002  0.00  0.00    +0.000 HD
BRANCH  13  16
ATOM     16  C   UNL     1       8.666   9.090  -1.554  0.00  0.00    +0.000 C 
ATOM     17  H   UNL     1       9.504   9.653  -1.132  0.00  0.00    +0.000 HD
ATOM     18  H   UNL     1       9.017   8.080  -1.788  0.00  0.00    +0.000 HD
ATOM     19  H   UNL     1       8.366   9.571  -2.491  0.00  0.00    +0.000 HD
ENDBRANCH  13  16
ENDBRANCH  10  13
ENDBRANCH   7  10
ENDBRANCH   4   7
ENDBRANCH   1   4
BRANCH   1  20
ATOM     20  C   UNL     1       3.886   8.989   0.375  0.00  0.00    +0.000 C 
ATOM     21  H   UNL     1       3.020   8.701  -0.234  0.00  0.00    +0.000 HD
ATOM     22  H   UNL     1       4.744   8.422  -0.008  0.00  0.00    +0.000 HD
BRANCH  20  23
ATOM     23  C   UNL     1       3.633   8.598   1.833  0.00  0.00    +0.000 C 
ATOM     24  H   UNL     1       2.797   9.186   2.230  0.00  0.00    +0.000 HD
ATOM     25  H   UNL     1       3.339   7.543   1.881  0.00  0.00    +0.000 HD
BRANCH  23  26
ATOM     26  C   UNL     1       4.878   8.827   2.691  0.00  0.00    +0.000 C 
ATOM     27  H   UNL     1       5.373   9.755   2.377  0.00  0.00    +0.000 HD
ATOM     28  H   UNL     1       4.578   8.967   3.737  0.00  0.00    +0.000 HD
BRANCH  26  29
ATOM     29  C   UNL     1       5.852   7.660   2.578  0.00  0.00    +0.000 C 
ATOM     30  H   UNL     1       6.839   8.004   2.252  0.00  0.00    +0.000 HD
ATOM     31  H   UNL     1       5.487   6.915   1.863  0.00  0.00    +0.000 HD
BRANCH  29  33
ATOM     32  O   UNL     1       5.183   7.074   4.816  0.00  0.00    +0.000 OA
ATOM     33  C   UNL     1       6.009   6.983   3.913  0.00  0.00    +0.000 C 
ATOM     34  H   UNL     1       6.930   6.391   4.042  0.00  0.00    +0.000 HD
ENDBRANCH  29  33
ENDBRANCH  26  29
ENDBRANCH  23  26
ENDBRANCH  20  23
ENDBRANCH   1  20
TORSDOF 10
ENDMDL
MODEL 8
REMARK VINA RESULT:    -4.590     18.155     20.340
REMARK INTER + INTRA:          -7.534
REMARK INTER:                  -6.543
REMARK INTRA:                  -0.991
REMARK UNBOUND:                -0.395
REMARK  Name = 8186
REMARK  10 active torsions:
REMARK  status: ('A' for Active; 'I' for Inactive)
REMARK    1  A    between atoms: C_2  and  C_3
REMARK    2  A    between atoms: C_2  and  C_4
REMARK    3  A    between atoms: C_3  and  C_5
REMARK    4  A    between atoms: C_4  and  C_6
REMARK    5  A    between atoms: C_5  and  C_7
REMARK    6  A    between atoms: C_6  and  C_8
REMARK    7  A    between atoms: C_7  and  C_9
REMARK    8  A    between atoms: C_8  and  C_10
REMARK    9  A    between atoms: C_9  and  C_11
REMARK   10  A    between atoms: C_10  and  C_12
REMARK                            x       y       z     vdW  Elec       q    Type
REMARK                         _______ _______ _______ _____ _____    ______ ____
ROOT
ATOM      1  C   UNL     1      -7.407  13.140   4.826  0.00  0.00    +0.000 C 
ATOM      2  H   UNL     1      -8.331  13.297   5.396  0.00  0.00    +0.000 HD
ATOM      3  H   UNL     1      -7.522  13.683   3.880  0.00  0.00    +0.000 HD
ENDROOT
BRANCH   1   4
ATOM      4  C   UNL     1      -7.244  11.647   4.530  0.00  0.00    +0.000 C 
ATOM      5  H   UNL     1      -7.600  11.437   3.514  0.00  0.00    +0.000 HD
ATOM      6  H   UNL     1      -6.176  11.394   4.549  0.00  0.00    +0.000 HD
BRANCH   4   7
ATOM      7  C   UNL     1      -7.990  10.747   5.520  0.00  0.00    +0.000 C 
ATOM      8  H   UNL     1      -8.209   9.788   5.036  0.00  0.00    +0.000 HD
ATOM      9  H   UNL     1      -7.331  10.529   6.371  0.00  0.00    +0.000 HD
BRANCH   7  10
ATOM     10  C   UNL     1      -9.295  11.359   6.033  0.00  0.00    +0.000 C 
ATOM     11  H   UNL     1      -9.169  12.442   6.160  0.00  0.00    +0.000 HD
ATOM     12  H   UNL     1     -10.085  11.211   5.286  0.00  0.00    +0.000 HD
BRANCH  10  13
ATOM     13  C   UNL     1      -9.718  10.731   7.361  0.00  0.00    +0.000 C 
ATOM     14  H   UNL     1     -10.760  10.396   7.301  0.00  0.00    +0.000 HD
ATOM     15  H   UNL     1      -9.663  11.478   8.162  0.00  0.00    +0.000 HD
BRANCH  13  16
ATOM     16  C   UNL     1      -8.833   9.549   7.725  0.00  0.00    +0.000 C 
ATOM     17  H   UNL     1      -8.945   9.285   8.781  0.00  0.00    +0.000 HD
ATOM     18  H   UNL     1      -9.104   8.674   7.125  0.00  0.00    +0.000 HD
ATOM     19  H   UNL     1      -7.779   9.776   7.537  0.00  0.00    +0.000 HD
ENDBRANCH  13  16
ENDBRANCH  10  13
ENDBRANCH   7  10
ENDBRANCH   4   7
ENDBRANCH   1   4
BRANCH   1  20
ATOM     20  C   UNL     1      -6.229  13.734   5.606  0.00  0.00    +0.000 C 
ATOM     21  H   UNL     1      -5.441  12.977   5.695  0.00  0.00    +0.000 HD
ATOM     22  H   UNL     1      -5.805  14.567   5.032  0.00  0.00    +0.000 HD
BRANCH  20  23
ATOM     23  C   UNL     1      -6.614  14.231   7.003  0.00  0.00    +0.000 C 
ATOM     24  H   UNL     1      -6.361  15.293   7.096  0.00  0.00    +0.000 HD
ATOM     25  H   UNL     1      -7.699  14.142   7.134  0.00  0.00    +0.000 HD
BRANCH  23  26
ATOM     26  C   UNL     1      -5.896  13.432   8.091  0.00  0.00    +0.000 C 
ATOM     27  H   UNL     1      -5.144  12.778   7.630  0.00  0.00    +0.000 HD
ATOM     28  H   UNL     1      -5.354  14.121   8.750  0.00  0.00    +0.000 HD
BRANCH  26  29
ATOM     29  C   UNL     1      -6.877  12.594   8.903  0.00  0.00    +0.000 C 
ATOM     30  H   UNL     1      -7.274  11.766   8.307  0.00  0.00    +0.000 HD
ATOM     31  H   UNL     1      -7.715  13.206   9.254  0.00  0.00    +0.000 HD
BRANCH  29  33
ATOM     32  O   UNL     1      -5.704  10.887  10.131  0.00  0.00    +0.000 OA
ATOM     33  C   UNL     1      -6.190  12.014  10.110  0.00  0.00    +0.000 C 
ATOM     34  H   UNL     1      -6.148  12.668  10.996  0.00  0.00    +0.000 HD
ENDBRANCH  29  33
ENDBRANCH  26  29
ENDBRANCH  23  26
ENDBRANCH  20  23
ENDBRANCH   1  20
TORSDOF 10
ENDMDL
MODEL 9
REMARK VINA RESULT:    -4.553     25.637     28.024
REMARK INTER + INTRA:          -7.478
REMARK INTER:                  -6.788
REMARK INTRA:                  -0.689
REMARK UNBOUND:                -0.395
REMARK  Name = 8186
REMARK  10 active torsions:
REMARK  status: ('A' for Active; 'I' for Inactive)
REMARK    1  A    between atoms: C_2  and  C_3
REMARK    2  A    between atoms: C_2  and  C_4
REMARK    3  A    between atoms: C_3  and  C_5
REMARK    4  A    between atoms: C_4  and  C_6
REMARK    5  A    between atoms: C_5  and  C_7
REMARK    6  A    between atoms: C_6  and  C_8
REMARK    7  A    between atoms: C_7  and  C_9
REMARK    8  A    between atoms: C_8  and  C_10
REMARK    9  A    between atoms: C_9  and  C_11
REMARK   10  A    between atoms: C_10  and  C_12
REMARK                            x       y       z     vdW  Elec       q    Type
REMARK                         _______ _______ _______ _____ _____    ______ ____
ROOT
ATOM      1  C   UNL     1     -20.976  -3.980   4.530  0.00  0.00    +0.000 C 
ATOM      2  H   UNL     1     -21.797  -4.105   5.246  0.00  0.00    +0.000 HD
ATOM      3  H   UNL     1     -21.233  -4.577   3.646  0.00  0.00    +0.000 HD
ENDROOT
BRANCH   1   4
ATOM      4  C   UNL     1     -19.683  -4.523   5.143  0.00  0.00    +0.000 C 
ATOM      5  H   UNL     1     -19.012  -3.688   5.377  0.00  0.00    +0.000 HD
ATOM      6  H   UNL     1     -19.920  -5.016   6.095  0.00  0.00    +0.000 HD
BRANCH   4   7
ATOM      7  C   UNL     1     -18.951  -5.515   4.233  0.00  0.00    +0.000 C 
ATOM      8  H   UNL     1     -17.925  -5.162   4.073  0.00  0.00    +0.000 HD
ATOM      9  H   UNL     1     -18.877  -6.482   4.747  0.00  0.00    +0.000 HD
BRANCH   7  10
ATOM     10  C   UNL     1     -19.631  -5.712   2.876  0.00  0.00    +0.000 C 
ATOM     11  H   UNL     1     -19.690  -6.783   2.647  0.00  0.00    +0.000 HD
ATOM     12  H   UNL     1     -20.659  -5.334   2.927  0.00  0.00    +0.000 HD
BRANCH  10  13
ATOM     13  C   UNL     1     -18.869  -4.988   1.765  0.00  0.00    +0.000 C 
ATOM     14  H   UNL     1     -19.278  -3.980   1.628  0.00  0.00    +0.000 HD
ATOM     15  H   UNL     1     -18.998  -5.522   0.816  0.00  0.00    +0.000 HD
BRANCH  13  16
ATOM     16  C   UNL     1     -17.385  -4.888   2.081  0.00  0.00    +0.000 C 
ATOM     17  H   UNL     1     -17.034  -5.783   2.604  0.00  0.00    +0.000 HD
ATOM     18  H   UNL     1     -16.808  -4.785   1.157  0.00  0.00    +0.000 HD
ATOM     19  H   UNL     1     -17.177  -4.017   2.711  0.00  0.00    +0.000 HD
ENDBRANCH  13  16
ENDBRANCH  10  13
ENDBRANCH   7  10
ENDBRANCH   4   7
ENDBRANCH   1   4
BRANCH   1  20
ATOM     20  C   UNL     1     -20.882  -2.504   4.127  0.00  0.00    +0.000 C 
ATOM     21  H   UNL     1     -19.826  -2.238   3.992  0.00  0.00    +0.000 HD
ATOM     22  H   UNL     1     -21.369  -2.368   3.154  0.00  0.00    +0.000 HD
BRANCH  20  23
ATOM     23  C   UNL     1     -21.517  -1.555   5.146  0.00  0.00    +0.000 C 
ATOM     24  H   UNL     1     -22.102  -0.791   4.620  0.00  0.00    +0.000 HD
ATOM     25  H   UNL     1     -22.213  -2.116   5.781  0.00  0.00    +0.000 HD
BRANCH  23  26
ATOM     26  C   UNL     1     -20.453  -0.883   6.014  0.00  0.00    +0.000 C 
ATOM     27  H   UNL     1     -19.463  -1.280   5.755  0.00  0.00    +0.000 HD
ATOM     28  H   UNL     1     -20.430   0.192   5.794  0.00  0.00    +0.000 HD
BRANCH  26  29
ATOM     29  C   UNL     1     -20.724  -1.106   7.497  0.00  0.00    +0.000 C 
ATOM     30  H   UNL     1     -21.123  -0.200   7.965  0.00  0.00    +0.000 HD
ATOM     31  H   UNL     1     -19.808  -1.397   8.022  0.00  0.00    +0.000 HD
BRANCH  29  33
ATOM     32  O   UNL     1     -22.113  -2.596   8.782  0.00  0.00    +0.000 OA
ATOM     33  C   UNL     1     -21.733  -2.209   7.681  0.00  0.00    +0.000 C 
ATOM     34  H   UNL     1     -22.118  -2.663   6.753  0.00  0.00    +0.000 HD
ENDBRANCH  29  33
ENDBRANCH  26  29
ENDBRANCH  23  26
ENDBRANCH  20  23
ENDBRANCH   1  20
TORSDOF 10
ENDMDL
MODEL 10
REMARK VINA RESULT:    -4.504     18.998     21.783
REMARK INTER + INTRA:          -7.401
REMARK INTER:                  -7.005
REMARK INTRA:                  -0.395
REMARK UNBOUND:                -0.395
REMARK  Name = 8186
REMARK  10 active torsions:
REMARK  status: ('A' for Active; 'I' for Inactive)
REMARK    1  A    between atoms: C_2  and  C_3
REMARK    2  A    between atoms: C_2  and  C_4
REMARK    3  A    between atoms: C_3  and  C_5
REMARK    4  A    between atoms: C_4  and  C_6
REMARK    5  A    between atoms: C_5  and  C_7
REMARK    6  A    between atoms: C_6  and  C_8
REMARK    7  A    between atoms: C_7  and  C_9
REMARK    8  A    between atoms: C_8  and  C_10
REMARK    9  A    between atoms: C_9  and  C_11
REMARK   10  A    between atoms: C_10  and  C_12
REMARK                            x       y       z     vdW  Elec       q    Type
REMARK                         _______ _______ _______ _____ _____    ______ ____
ROOT
ATOM      1  C   UNL     1      -9.210   9.677   7.396  0.00  0.00    +0.000 C 
ATOM      2  H   UNL     1      -9.735   9.218   6.550  0.00  0.00    +0.000 HD
ATOM      3  H   UNL     1      -9.980  10.038   8.089  0.00  0.00    +0.000 HD
ENDROOT
BRANCH   1   4
ATOM      4  C   UNL     1      -8.390  10.869   6.895  0.00  0.00    +0.000 C 
ATOM      5  H   UNL     1      -8.674  11.768   7.456  0.00  0.00    +0.000 HD
ATOM      6  H   UNL     1      -7.329  10.686   7.105  0.00  0.00    +0.000 HD
BRANCH   4   7
ATOM      7  C   UNL     1      -8.566  11.138   5.396  0.00  0.00    +0.000 C 
ATOM      8  H   UNL     1      -8.888  10.213   4.903  0.00  0.00    +0.000 HD
ATOM      9  H   UNL     1      -9.374  11.868   5.258  0.00  0.00    +0.000 HD
BRANCH   7  10
ATOM     10  C   UNL     1      -7.295  11.653   4.718  0.00  0.00    +0.000 C 
ATOM     11  H   UNL     1      -6.414  11.235   5.221  0.00  0.00    +0.000 HD
ATOM     12  H   UNL     1      -7.270  11.302   3.679  0.00  0.00    +0.000 HD
BRANCH  10  13
ATOM     13  C   UNL     1      -7.230  13.180   4.748  0.00  0.00    +0.000 C 
ATOM     14  H   UNL     1      -8.139  13.583   5.211  0.00  0.00    +0.000 HD
ATOM     15  H   UNL     1      -7.186  13.572   3.725  0.00  0.00    +0.000 HD
BRANCH  13  16
ATOM     16  C   UNL     1      -6.016  13.671   5.521  0.00  0.00    +0.000 C 
ATOM     17  H   UNL     1      -6.279  13.905   6.557  0.00  0.00    +0.000 HD
ATOM     18  H   UNL     1      -5.238  12.901   5.533  0.00  0.00    +0.000 HD
ATOM     19  H   UNL     1      -5.597  14.571   5.061  0.00  0.00    +0.000 HD
ENDBRANCH  13  16
ENDBRANCH  10  13
ENDBRANCH   7  10
ENDBRANCH   4   7
ENDBRANCH   1   4
BRANCH   1  20
ATOM     20  C   UNL     1      -8.361   8.612   8.099  0.00  0.00    +0.000 C 
ATOM     21  H   UNL     1      -8.971   7.714   8.252  0.00  0.00    +0.000 HD
ATOM     22  H   UNL     1      -7.532   8.324   7.440  0.00  0.00    +0.000 HD
BRANCH  20  23
ATOM     23  C   UNL     1      -7.796   9.077   9.444  0.00  0.00    +0.000 C 
ATOM     24  H   UNL     1      -6.725   8.848   9.490  0.00  0.00    +0.000 HD
ATOM     25  H   UNL     1      -7.900  10.165   9.526  0.00  0.00    +0.000 HD
BRANCH  23  26
ATOM     26  C   UNL     1      -8.519   8.400  10.610  0.00  0.00    +0.000 C 
ATOM     27  H   UNL     1      -9.081   7.534  10.240  0.00  0.00    +0.000 HD
ATOM     28  H   UNL     1      -7.779   8.016  11.322  0.00  0.00    +0.000 HD
BRANCH  26  29
ATOM     29  C   UNL     1      -9.466   9.366  11.311  0.00  0.00    +0.000 C 
ATOM     30  H   UNL     1      -9.585  10.289  10.733  0.00  0.00    +0.000 HD
ATOM     31  H   UNL     1      -9.093   9.624  12.308  0.00  0.00    +0.000 HD
BRANCH  29  33
ATOM     32  O   UNL     1     -11.013   7.525  11.443  0.00  0.00    +0.000 OA
ATOM     33  C   UNL     1     -10.824   8.738  11.473  0.00  0.00    +0.000 C 
ATOM     34  H   UNL     1     -11.661   9.440  11.620  0.00  0.00    +0.000 HD
ENDBRANCH  29  33
ENDBRANCH  26  29
ENDBRANCH  23  26
ENDBRANCH  20  23
ENDBRANCH   1  20
TORSDOF 10
ENDMDL
