MODEL 1
REMARK VINA RESULT:    -4.965      0.000      0.000
REMARK INTER + INTRA:          -5.918
REMARK INTER:                  -5.848
REMARK INTRA:                  -0.070
REMARK UNBOUND:                -0.081
REMARK  Name = 1183
REMARK  4 active torsions:
REMARK  status: ('A' for Active; 'I' for Inactive)
REMARK    1  A    between atoms: O_1  and  C_4
REMARK    2  A    between atoms: O_1  and  C_11
REMARK    3  A    between atoms: O_2  and  C_7
REMARK    4  A    between atoms: C_5  and  C_10
REMARK                            x       y       z     vdW  Elec       q    Type
REMARK                         _______ _______ _______ _____ _____    ______ ____
ROOT
ATOM      1  C   UNL     1      -1.775   7.997 -11.278  0.00  0.00    +0.000 A 
ATOM      2  C   UNL     1      -3.157   7.345  -9.406  0.00  0.00    +0.000 A 
ATOM      3  C   UNL     1      -2.558   7.042 -10.628  0.00  0.00    +0.000 A 
ATOM      4  C   UNL     1      -1.593   9.255 -10.705  0.00  0.00    +0.000 A 
ATOM      5  C   UNL     1      -2.974   8.604  -8.833  0.00  0.00    +0.000 A 
ATOM      6  C   UNL     1      -2.192   9.559  -9.482  0.00  0.00    +0.000 A 
ATOM      7  H   UNL     1      -2.734   6.048 -11.028  0.00  0.00    +0.000 HD
ATOM      8  H   UNL     1      -3.432   8.862  -7.881  0.00  0.00    +0.000 HD
ATOM      9  H   UNL     1      -2.058  10.535  -9.026  0.00  0.00    +0.000 HD
ENDROOT
BRANCH   2  11
ATOM     10  O   UNL     1      -5.194   6.263  -8.880  0.00  0.00    +0.000 OA
ATOM     11  C   UNL     1      -3.972   6.350  -8.728  0.00  0.00    +0.000 C 
ATOM     12  H   UNL     1      -3.447   5.654  -8.053  0.00  0.00    +0.000 HD
ENDBRANCH   2  11
BRANCH   4  13
ATOM     13  O   UNL     1      -0.831  10.196 -11.330  0.00  0.00    +0.000 OA
ATOM     14  H   UNL     1      -0.576  10.877 -10.684  0.00  0.00    +0.000 HD
ENDBRANCH   4  13
BRANCH   1  15
ATOM     15  O   UNL     1      -1.196   7.688 -12.472  0.00  0.00    +0.000 OA
BRANCH  15  16
ATOM     16  C   UNL     1      -1.999   6.991 -13.422  0.00  0.00    +0.000 C 
ATOM     17  H   UNL     1      -2.947   7.507 -13.605  0.00  0.00    +0.000 HD
ATOM     18  H   UNL     1      -2.141   5.942 -13.138  0.00  0.00    +0.000 HD
ATOM     19  H   UNL     1      -1.449   6.991 -14.369  0.00  0.00    +0.000 HD
ENDBRANCH  15  16
ENDBRANCH   1  15
TORSDOF 4
ENDMDL
MODEL 2
REMARK VINA RESULT:    -4.810     31.657     33.624
REMARK INTER + INTRA:          -5.735
REMARK INTER:                  -5.669
REMARK INTRA:                  -0.066
REMARK UNBOUND:                -0.081
REMARK  Name = 1183
REMARK  4 active torsions:
REMARK  status: ('A' for Active; 'I' for Inactive)
REMARK    1  A    between atoms: O_1  and  C_4
REMARK    2  A    between atoms: O_1  and  C_11
REMARK    3  A    between atoms: O_2  and  C_7
REMARK    4  A    between atoms: C_5  and  C_10
REMARK                            x       y       z     vdW  Elec       q    Type
REMARK                         _______ _______ _______ _____ _____    ______ ____
ROOT
ATOM      1  C   UNL     1     -10.275 -10.363  15.544  0.00  0.00    +0.000 A 
ATOM      2  C   UNL     1      -9.421 -12.065  17.032  0.00  0.00    +0.000 A 
ATOM      3  C   UNL     1     -10.389 -11.111  16.717  0.00  0.00    +0.000 A 
ATOM      4  C   UNL     1      -9.195 -10.569  14.688  0.00  0.00    +0.000 A 
ATOM      5  C   UNL     1      -8.340 -12.271  16.174  0.00  0.00    +0.000 A 
ATOM      6  C   UNL     1      -8.227 -11.524  15.002  0.00  0.00    +0.000 A 
ATOM      7  H   UNL     1     -11.208 -10.992  17.419  0.00  0.00    +0.000 HD
ATOM      8  H   UNL     1      -7.574 -13.009  16.400  0.00  0.00    +0.000 HD
ATOM      9  H   UNL     1      -7.380 -11.694  14.344  0.00  0.00    +0.000 HD
ENDROOT
BRANCH   2  11
ATOM     10  O   UNL     1      -9.877 -12.356  19.335  0.00  0.00    +0.000 OA
ATOM     11  C   UNL     1      -9.539 -12.845  18.253  0.00  0.00    +0.000 C 
ATOM     12  H   UNL     1      -9.308 -13.921  18.180  0.00  0.00    +0.000 HD
ENDBRANCH   2  11
BRANCH   4  13
ATOM     13  O   UNL     1      -9.073  -9.846  13.540  0.00  0.00    +0.000 OA
ATOM     14  H   UNL     1      -8.277  -9.289  13.599  0.00  0.00    +0.000 HD
ENDBRANCH   4  13
BRANCH   1  15
ATOM     15  O   UNL     1     -11.227  -9.434  15.248  0.00  0.00    +0.000 OA
BRANCH  15  16
ATOM     16  C   UNL     1     -12.460  -9.519  15.961  0.00  0.00    +0.000 C 
ATOM     17  H   UNL     1     -12.364 -10.135  16.861  0.00  0.00    +0.000 HD
ATOM     18  H   UNL     1     -13.279  -9.848  15.313  0.00  0.00    +0.000 HD
ATOM     19  H   UNL     1     -12.707  -8.505  16.295  0.00  0.00    +0.000 HD
ENDBRANCH  15  16
ENDBRANCH   1  15
TORSDOF 4
ENDMDL
MODEL 3
REMARK VINA RESULT:    -4.724      1.566      3.689
REMARK INTER + INTRA:          -5.634
REMARK INTER:                  -5.554
REMARK INTRA:                  -0.080
REMARK UNBOUND:                -0.081
REMARK  Name = 1183
REMARK  4 active torsions:
REMARK  status: ('A' for Active; 'I' for Inactive)
REMARK    1  A    between atoms: O_1  and  C_4
REMARK    2  A    between atoms: O_1  and  C_11
REMARK    3  A    between atoms: O_2  and  C_7
REMARK    4  A    between atoms: C_5  and  C_10
REMARK                            x       y       z     vdW  Elec       q    Type
REMARK                         _______ _______ _______ _____ _____    ______ ____
ROOT
ATOM      1  C   UNL     1      -3.082   7.400  -9.383  0.00  0.00    +0.000 A 
ATOM      2  C   UNL     1      -1.889   7.610 -11.474  0.00  0.00    +0.000 A 
ATOM      3  C   UNL     1      -2.638   6.843 -10.583  0.00  0.00    +0.000 A 
ATOM      4  C   UNL     1      -2.776   8.725  -9.075  0.00  0.00    +0.000 A 
ATOM      5  C   UNL     1      -1.582   8.936 -11.165  0.00  0.00    +0.000 A 
ATOM      6  C   UNL     1      -2.026   9.494  -9.966  0.00  0.00    +0.000 A 
ATOM      7  H   UNL     1      -2.847   5.818 -10.874  0.00  0.00    +0.000 HD
ATOM      8  H   UNL     1      -0.999   9.553 -11.844  0.00  0.00    +0.000 HD
ATOM      9  H   UNL     1      -1.780  10.527  -9.738  0.00  0.00    +0.000 HD
ENDROOT
BRANCH   2  11
ATOM     10  O   UNL     1      -2.188   6.539 -13.562  0.00  0.00    +0.000 OA
ATOM     11  C   UNL     1      -1.426   7.030 -12.724  0.00  0.00    +0.000 C 
ATOM     12  H   UNL     1      -0.338   7.042 -12.905  0.00  0.00    +0.000 HD
ENDBRANCH   2  11
BRANCH   4  13
ATOM     13  O   UNL     1      -3.203   9.281  -7.907  0.00  0.00    +0.000 OA
ATOM     14  H   UNL     1      -3.027  10.238  -7.928  0.00  0.00    +0.000 HD
ENDBRANCH   4  13
BRANCH   1  15
ATOM     15  O   UNL     1      -3.814   6.640  -8.521  0.00  0.00    +0.000 OA
BRANCH  15  16
ATOM     16  C   UNL     1      -5.118   6.250  -8.948  0.00  0.00    +0.000 C 
ATOM     17  H   UNL     1      -5.078   5.439  -9.682  0.00  0.00    +0.000 HD
ATOM     18  H   UNL     1      -5.700   7.108  -9.302  0.00  0.00    +0.000 HD
ATOM     19  H   UNL     1      -5.639   5.856  -8.068  0.00  0.00    +0.000 HD
ENDBRANCH  15  16
ENDBRANCH   1  15
TORSDOF 4
ENDMDL
MODEL 4
REMARK VINA RESULT:    -4.593     24.346     25.911
REMARK INTER + INTRA:          -5.480
REMARK INTER:                  -5.410
REMARK INTRA:                  -0.069
REMARK UNBOUND:                -0.081
REMARK  Name = 1183
REMARK  4 active torsions:
REMARK  status: ('A' for Active; 'I' for Inactive)
REMARK    1  A    between atoms: O_1  and  C_4
REMARK    2  A    between atoms: O_1  and  C_11
REMARK    3  A    between atoms: O_2  and  C_7
REMARK    4  A    between atoms: C_5  and  C_10
REMARK                            x       y       z     vdW  Elec       q    Type
REMARK                         _______ _______ _______ _____ _____    ______ ____
ROOT
ATOM      1  C   UNL     1     -20.122  -4.169   4.866  0.00  0.00    +0.000 A 
ATOM      2  C   UNL     1     -20.267  -3.887   2.470  0.00  0.00    +0.000 A 
ATOM      3  C   UNL     1     -20.717  -3.573   3.752  0.00  0.00    +0.000 A 
ATOM      4  C   UNL     1     -19.078  -5.077   4.695  0.00  0.00    +0.000 A 
ATOM      5  C   UNL     1     -19.223  -4.796   2.300  0.00  0.00    +0.000 A 
ATOM      6  C   UNL     1     -18.628  -5.391   3.413  0.00  0.00    +0.000 A 
ATOM      7  H   UNL     1     -21.532  -2.860   3.826  0.00  0.00    +0.000 HD
ATOM      8  H   UNL     1     -18.856  -5.056   1.310  0.00  0.00    +0.000 HD
ATOM      9  H   UNL     1     -17.816  -6.098   3.266  0.00  0.00    +0.000 HD
ENDROOT
BRANCH   2  11
ATOM     10  O   UNL     1     -20.244  -2.876   0.331  0.00  0.00    +0.000 OA
ATOM     11  C   UNL     1     -20.886  -3.267   1.310  0.00  0.00    +0.000 C 
ATOM     12  H   UNL     1     -21.984  -3.154   1.333  0.00  0.00    +0.000 HD
ENDBRANCH   2  11
BRANCH   4  13
ATOM     13  O   UNL     1     -18.489  -5.665   5.774  0.00  0.00    +0.000 OA
ATOM     14  H   UNL     1     -18.184  -6.554   5.523  0.00  0.00    +0.000 HD
ENDBRANCH   4  13
BRANCH   1  15
ATOM     15  O   UNL     1     -20.571  -3.854   6.113  0.00  0.00    +0.000 OA
BRANCH  15  16
ATOM     16  C   UNL     1     -21.678  -2.959   6.197  0.00  0.00    +0.000 C 
ATOM     17  H   UNL     1     -21.432  -1.972   5.792  0.00  0.00    +0.000 HD
ATOM     18  H   UNL     1     -22.079  -2.906   7.215  0.00  0.00    +0.000 HD
ATOM     19  H   UNL     1     -22.473  -3.372   5.565  0.00  0.00    +0.000 HD
ENDBRANCH  15  16
ENDBRANCH   1  15
TORSDOF 4
ENDMDL
MODEL 5
REMARK VINA RESULT:    -4.556     27.989     29.899
REMARK INTER + INTRA:          -5.437
REMARK INTER:                  -5.351
REMARK INTRA:                  -0.085
REMARK UNBOUND:                -0.081
REMARK  Name = 1183
REMARK  4 active torsions:
REMARK  status: ('A' for Active; 'I' for Inactive)
REMARK    1  A    between atoms: O_1  and  C_4
REMARK    2  A    between atoms: O_1  and  C_11
REMARK    3  A    between atoms: O_2  and  C_7
REMARK    4  A    between atoms: C_5  and  C_10
REMARK                            x       y       z     vdW  Elec       q    Type
REMARK                         _______ _______ _______ _____ _____    ______ ____
ROOT
ATOM      1  C   UNL     1      -9.720   9.799  17.380  0.00  0.00    +0.000 A 
ATOM      2  C   UNL     1     -11.364   9.737  19.151  0.00  0.00    +0.000 A 
ATOM      3  C   UNL     1     -10.910  10.264  17.942  0.00  0.00    +0.000 A 
ATOM      4  C   UNL     1      -8.985   8.806  18.027  0.00  0.00    +0.000 A 
ATOM      5  C   UNL     1     -10.628   8.743  19.797  0.00  0.00    +0.000 A 
ATOM      6  C   UNL     1      -9.439   8.277  19.236  0.00  0.00    +0.000 A 
ATOM      7  H   UNL     1     -11.521  11.035  17.483  0.00  0.00    +0.000 HD
ATOM      8  H   UNL     1     -10.962   8.317  20.740  0.00  0.00    +0.000 HD
ATOM      9  H   UNL     1      -8.876   7.504  19.749  0.00  0.00    +0.000 HD
ENDROOT
BRANCH   2  11
ATOM     10  O   UNL     1     -12.821  10.215  20.951  0.00  0.00    +0.000 OA
ATOM     11  C   UNL     1     -12.602  10.221  19.737  0.00  0.00    +0.000 C 
ATOM     12  H   UNL     1     -13.365  10.606  19.039  0.00  0.00    +0.000 HD
ENDBRANCH   2  11
BRANCH   4  13
ATOM     13  O   UNL     1      -7.823   8.343  17.488  0.00  0.00    +0.000 OA
ATOM     14  H   UNL     1      -8.017   7.907  16.640  0.00  0.00    +0.000 HD
ENDBRANCH   4  13
BRANCH   1  15
ATOM     15  O   UNL     1      -9.288  10.323  16.199  0.00  0.00    +0.000 OA
BRANCH  15  16
ATOM     16  C   UNL     1     -10.020   9.971  15.026  0.00  0.00    +0.000 C 
ATOM     17  H   UNL     1      -9.404  10.052  14.126  0.00  0.00    +0.000 HD
ATOM     18  H   UNL     1     -10.954  10.539  14.948  0.00  0.00    +0.000 HD
ATOM     19  H   UNL     1     -10.298   8.916  15.126  0.00  0.00    +0.000 HD
ENDBRANCH  15  16
ENDBRANCH   1  15
TORSDOF 4
ENDMDL
MODEL 6
REMARK VINA RESULT:    -4.475     32.565     34.674
REMARK INTER + INTRA:          -5.341
REMARK INTER:                  -5.269
REMARK INTRA:                  -0.072
REMARK UNBOUND:                -0.081
REMARK  Name = 1183
REMARK  4 active torsions:
REMARK  status: ('A' for Active; 'I' for Inactive)
REMARK    1  A    between atoms: O_1  and  C_4
REMARK    2  A    between atoms: O_1  and  C_11
REMARK    3  A    between atoms: O_2  and  C_7
REMARK    4  A    between atoms: C_5  and  C_10
REMARK                            x       y       z     vdW  Elec       q    Type
REMARK                         _______ _______ _______ _____ _____    ______ ____
ROOT
ATOM      1  C   UNL     1      -9.390 -12.509  17.738  0.00  0.00    +0.000 A 
ATOM      2  C   UNL     1     -10.276 -10.903  16.165  0.00  0.00    +0.000 A 
ATOM      3  C   UNL     1     -10.394 -11.619  17.356  0.00  0.00    +0.000 A 
ATOM      4  C   UNL     1      -8.268 -12.684  16.929  0.00  0.00    +0.000 A 
ATOM      5  C   UNL     1      -9.153 -11.079  15.355  0.00  0.00    +0.000 A 
ATOM      6  C   UNL     1      -8.149 -11.969  15.737  0.00  0.00    +0.000 A 
ATOM      7  H   UNL     1     -11.288 -11.443  17.947  0.00  0.00    +0.000 HD
ATOM      8  H   UNL     1      -9.040 -10.532  14.422  0.00  0.00    +0.000 HD
ATOM      9  H   UNL     1      -7.281 -12.096  15.097  0.00  0.00    +0.000 HD
ENDROOT
BRANCH   2  11
ATOM     10  O   UNL     1     -11.235  -9.249  14.772  0.00  0.00    +0.000 OA
ATOM     11  C   UNL     1     -11.322  -9.976  15.766  0.00  0.00    +0.000 C 
ATOM     12  H   UNL     1     -12.224  -9.941  16.401  0.00  0.00    +0.000 HD
ENDBRANCH   2  11
BRANCH   4  13
ATOM     13  O   UNL     1      -7.281 -13.550  17.290  0.00  0.00    +0.000 OA
ATOM     14  H   UNL     1      -7.641 -14.454  17.302  0.00  0.00    +0.000 HD
ENDBRANCH   4  13
BRANCH   1  15
ATOM     15  O   UNL     1      -9.518 -13.202  18.905  0.00  0.00    +0.000 OA
BRANCH  15  16
ATOM     16  C   UNL     1     -10.550 -12.785  19.797  0.00  0.00    +0.000 C 
ATOM     17  H   UNL     1     -10.178 -12.074  20.541  0.00  0.00    +0.000 HD
ATOM     18  H   UNL     1     -11.059 -13.641  20.253  0.00  0.00    +0.000 HD
ATOM     19  H   UNL     1     -11.298 -12.255  19.196  0.00  0.00    +0.000 HD
ENDBRANCH  15  16
ENDBRANCH   1  15
TORSDOF 4
ENDMDL
MODEL 7
REMARK VINA RESULT:    -4.446     32.212     33.759
REMARK INTER + INTRA:          -5.307
REMARK INTER:                  -5.228
REMARK INTRA:                  -0.079
REMARK UNBOUND:                -0.081
REMARK  Name = 1183
REMARK  4 active torsions:
REMARK  status: ('A' for Active; 'I' for Inactive)
REMARK    1  A    between atoms: O_1  and  C_4
REMARK    2  A    between atoms: O_1  and  C_11
REMARK    3  A    between atoms: O_2  and  C_7
REMARK    4  A    between atoms: C_5  and  C_10
REMARK                            x       y       z     vdW  Elec       q    Type
REMARK                         _______ _______ _______ _____ _____    ______ ____
ROOT
ATOM      1  C   UNL     1      -9.241 -11.489  15.431  0.00  0.00    +0.000 A 
ATOM      2  C   UNL     1     -11.236 -12.404  16.442  0.00  0.00    +0.000 A 
ATOM      3  C   UNL     1      -9.939 -12.576  15.958  0.00  0.00    +0.000 A 
ATOM      4  C   UNL     1      -9.840 -10.230  15.387  0.00  0.00    +0.000 A 
ATOM      5  C   UNL     1     -11.835 -11.144  16.398  0.00  0.00    +0.000 A 
ATOM      6  C   UNL     1     -11.137 -10.057  15.871  0.00  0.00    +0.000 A 
ATOM      7  H   UNL     1      -9.522 -13.576  16.016  0.00  0.00    +0.000 HD
ATOM      8  H   UNL     1     -12.844 -10.986  16.770  0.00  0.00    +0.000 HD
ATOM      9  H   UNL     1     -11.615  -9.082  15.844  0.00  0.00    +0.000 HD
ENDROOT
BRANCH   2  11
ATOM     10  O   UNL     1     -13.105 -13.840  16.634  0.00  0.00    +0.000 OA
ATOM     11  C   UNL     1     -11.964 -13.536  16.991  0.00  0.00    +0.000 C 
ATOM     12  H   UNL     1     -11.447 -14.132  17.762  0.00  0.00    +0.000 HD
ENDBRANCH   2  11
BRANCH   4  13
ATOM     13  O   UNL     1      -9.169  -9.161  14.875  0.00  0.00    +0.000 OA
ATOM     14  H   UNL     1      -8.214  -9.345  14.899  0.00  0.00    +0.000 HD
ENDBRANCH   4  13
BRANCH   1  15
ATOM     15  O   UNL     1      -7.975 -11.670  14.961  0.00  0.00    +0.000 OA
BRANCH  15  16
ATOM     16  C   UNL     1      -6.922 -11.680  15.924  0.00  0.00    +0.000 C 
ATOM     17  H   UNL     1      -5.937 -11.670  15.445  0.00  0.00    +0.000 HD
ATOM     18  H   UNL     1      -7.033 -12.506  16.635  0.00  0.00    +0.000 HD
ATOM     19  H   UNL     1      -7.004 -10.752  16.499  0.00  0.00    +0.000 HD
ENDBRANCH  15  16
ENDBRANCH   1  15
TORSDOF 4
ENDMDL
MODEL 8
REMARK VINA RESULT:    -4.391     31.783     34.489
REMARK INTER + INTRA:          -5.243
REMARK INTER:                  -5.174
REMARK INTRA:                  -0.069
REMARK UNBOUND:                -0.081
REMARK  Name = 1183
REMARK  4 active torsions:
REMARK  status: ('A' for Active; 'I' for Inactive)
REMARK    1  A    between atoms: O_1  and  C_4
REMARK    2  A    between atoms: O_1  and  C_11
REMARK    3  A    between atoms: O_2  and  C_7
REMARK    4  A    between atoms: C_5  and  C_10
REMARK                            x       y       z     vdW  Elec       q    Type
REMARK                         _______ _______ _______ _____ _____    ______ ____
ROOT
ATOM      1  C   UNL     1      -8.169 -12.812  17.357  0.00  0.00    +0.000 A 
ATOM      2  C   UNL     1      -8.924 -11.484  15.483  0.00  0.00    +0.000 A 
ATOM      3  C   UNL     1      -7.927 -12.232  16.110  0.00  0.00    +0.000 A 
ATOM      4  C   UNL     1      -9.407 -12.643  17.975  0.00  0.00    +0.000 A 
ATOM      5  C   UNL     1     -10.162 -11.316  16.103  0.00  0.00    +0.000 A 
ATOM      6  C   UNL     1     -10.404 -11.895  17.349  0.00  0.00    +0.000 A 
ATOM      7  H   UNL     1      -6.983 -12.331  15.583  0.00  0.00    +0.000 HD
ATOM      8  H   UNL     1     -10.954 -10.737  15.633  0.00  0.00    +0.000 HD
ATOM      9  H   UNL     1     -11.373 -11.756  17.820  0.00  0.00    +0.000 HD
ENDROOT
BRANCH   2  11
ATOM     10  O   UNL     1      -8.926  -9.700  13.931  0.00  0.00    +0.000 OA
ATOM     11  C   UNL     1      -8.673 -10.881  14.185  0.00  0.00    +0.000 C 
ATOM     12  H   UNL     1      -8.234 -11.532  13.411  0.00  0.00    +0.000 HD
ENDBRANCH   2  11
BRANCH   4  13
ATOM     13  O   UNL     1      -9.656 -13.204  19.192  0.00  0.00    +0.000 OA
ATOM     14  H   UNL     1     -10.614 -13.193  19.356  0.00  0.00    +0.000 HD
ENDBRANCH   4  13
BRANCH   1  15
ATOM     15  O   UNL     1      -7.187 -13.540  17.958  0.00  0.00    +0.000 OA
BRANCH  15  16
ATOM     16  C   UNL     1      -5.849 -13.310  17.521  0.00  0.00    +0.000 C 
ATOM     17  H   UNL     1      -5.822 -12.763  16.573  0.00  0.00    +0.000 HD
ATOM     18  H   UNL     1      -5.270 -14.239  17.485  0.00  0.00    +0.000 HD
ATOM     19  H   UNL     1      -5.373 -12.669  18.271  0.00  0.00    +0.000 HD
ENDBRANCH  15  16
ENDBRANCH   1  15
TORSDOF 4
ENDMDL
MODEL 9
REMARK VINA RESULT:    -4.356     26.620     28.288
REMARK INTER + INTRA:          -5.201
REMARK INTER:                  -5.124
REMARK INTRA:                  -0.078
REMARK UNBOUND:                -0.081
REMARK  Name = 1183
REMARK  4 active torsions:
REMARK  status: ('A' for Active; 'I' for Inactive)
REMARK    1  A    between atoms: O_1  and  C_4
REMARK    2  A    between atoms: O_1  and  C_11
REMARK    3  A    between atoms: O_2  and  C_7
REMARK    4  A    between atoms: C_5  and  C_10
REMARK                            x       y       z     vdW  Elec       q    Type
REMARK                         _______ _______ _______ _____ _____    ______ ____
ROOT
ATOM      1  C   UNL     1     -23.019  -1.714   7.561  0.00  0.00    +0.000 A 
ATOM      2  C   UNL     1     -21.202  -2.507   6.178  0.00  0.00    +0.000 A 
ATOM      3  C   UNL     1     -22.542  -2.565   6.563  0.00  0.00    +0.000 A 
ATOM      4  C   UNL     1     -22.156  -0.806   8.174  0.00  0.00    +0.000 A 
ATOM      5  C   UNL     1     -20.339  -1.599   6.792  0.00  0.00    +0.000 A 
ATOM      6  C   UNL     1     -20.816  -0.748   7.790  0.00  0.00    +0.000 A 
ATOM      7  H   UNL     1     -23.168  -3.290   6.052  0.00  0.00    +0.000 HD
ATOM      8  H   UNL     1     -19.292  -1.536   6.508  0.00  0.00    +0.000 HD
ATOM      9  H   UNL     1     -20.133  -0.046   8.259  0.00  0.00    +0.000 HD
ENDROOT
BRANCH   2  11
ATOM     10  O   UNL     1     -19.945  -4.339   5.366  0.00  0.00    +0.000 OA
ATOM     11  C   UNL     1     -20.705  -3.393   5.139  0.00  0.00    +0.000 C 
ATOM     12  H   UNL     1     -21.039  -3.187   4.108  0.00  0.00    +0.000 HD
ENDBRANCH   2  11
BRANCH   4  13
ATOM     13  O   UNL     1     -22.609   0.029   9.149  0.00  0.00    +0.000 OA
ATOM     14  H   UNL     1     -22.553   0.947   8.832  0.00  0.00    +0.000 HD
ENDBRANCH   4  13
BRANCH   1  15
ATOM     15  O   UNL     1     -24.329  -1.781   7.927  0.00  0.00    +0.000 OA
BRANCH  15  16
ATOM     16  C   UNL     1     -25.300  -1.545   6.909  0.00  0.00    +0.000 C 
ATOM     17  H   UNL     1     -26.005  -2.378   6.822  0.00  0.00    +0.000 HD
ATOM     18  H   UNL     1     -24.829  -1.293   5.952  0.00  0.00    +0.000 HD
ATOM     19  H   UNL     1     -25.881  -0.668   7.216  0.00  0.00    +0.000 HD
ENDBRANCH  15  16
ENDBRANCH   1  15
TORSDOF 4
ENDMDL
MODEL 10
REMARK VINA RESULT:    -4.248     10.343     12.246
REMARK INTER + INTRA:          -5.074
REMARK INTER:                  -4.993
REMARK INTRA:                  -0.081
REMARK UNBOUND:                -0.081
REMARK  Name = 1183
REMARK  4 active torsions:
REMARK  status: ('A' for Active; 'I' for Inactive)
REMARK    1  A    between atoms: O_1  and  C_4
REMARK    2  A    between atoms: O_1  and  C_11
REMARK    3  A    between atoms: O_2  and  C_7
REMARK    4  A    between atoms: C_5  and  C_10
REMARK                            x       y       z     vdW  Elec       q    Type
REMARK                         _______ _______ _______ _____ _____    ______ ____
ROOT
ATOM      1  C   UNL     1       2.572  -0.808 -14.707  0.00  0.00    +0.000 A 
ATOM      2  C   UNL     1       4.473  -2.111 -15.437  0.00  0.00    +0.000 A 
ATOM      3  C   UNL     1       3.137  -2.040 -15.041  0.00  0.00    +0.000 A 
ATOM      4  C   UNL     1       3.343   0.352 -14.770  0.00  0.00    +0.000 A 
ATOM      5  C   UNL     1       5.243  -0.949 -15.500  0.00  0.00    +0.000 A 
ATOM      6  C   UNL     1       4.679   0.282 -15.167  0.00  0.00    +0.000 A 
ATOM      7  H   UNL     1       2.585  -2.974 -15.010  0.00  0.00    +0.000 HD
ATOM      8  H   UNL     1       6.286  -0.981 -15.807  0.00  0.00    +0.000 HD
ATOM      9  H   UNL     1       5.290   1.178 -15.221  0.00  0.00    +0.000 HD
ENDROOT
BRANCH   2  11
ATOM     10  O   UNL     1       4.815  -4.436 -15.173  0.00  0.00    +0.000 OA
ATOM     11  C   UNL     1       5.062  -3.393 -15.785  0.00  0.00    +0.000 C 
ATOM     12  H   UNL     1       5.758  -3.405 -16.641  0.00  0.00    +0.000 HD
ENDBRANCH   2  11
BRANCH   4  13
ATOM     13  O   UNL     1       2.804   1.560 -14.448  0.00  0.00    +0.000 OA
ATOM     14  H   UNL     1       2.480   1.528 -13.531  0.00  0.00    +0.000 HD
ENDBRANCH   4  13
BRANCH   1  15
ATOM     15  O   UNL     1       1.267  -0.753 -14.321  0.00  0.00    +0.000 OA
BRANCH  15  16
ATOM     16  C   UNL     1       0.969  -1.147 -12.983  0.00  0.00    +0.000 C 
ATOM     17  H   UNL     1       1.199  -2.204 -12.813  0.00  0.00    +0.000 HD
ATOM     18  H   UNL     1      -0.060  -0.892 -12.707  0.00  0.00    +0.000 HD
ATOM     19  H   UNL     1       1.626  -0.569 -12.325  0.00  0.00    +0.000 HD
ENDBRANCH  15  16
ENDBRANCH   1  15
TORSDOF 4
ENDMDL
