MODEL 1
REMARK VINA RESULT:    -4.525      0.000      0.000
REMARK INTER + INTRA:          -6.444
REMARK INTER:                  -6.024
REMARK INTRA:                  -0.420
REMARK UNBOUND:                -0.331
REMARK  Name = 5363388
REMARK  7 active torsions:
REMARK  status: ('A' for Active; 'I' for Inactive)
REMARK    1  A    between atoms: O_1  and  C_4
REMARK    2  A    between atoms: O_1  and  C_9
REMARK    3  A    between atoms: C_3  and  C_4
REMARK    4  A    between atoms: C_3  and  C_5
REMARK    5  A    between atoms: C_6  and  C_7
REMARK    6  A    between atoms: C_6  and  C_8
REMARK    7  A    between atoms: C_9  and  C_10
REMARK                            x       y       z     vdW  Elec       q    Type
REMARK                         _______ _______ _______ _____ _____    ______ ____
ROOT
ATOM      1  C   UNL     1       6.806   8.551   0.597  0.00  0.00    +0.000 C 
ATOM      2  H   UNL     1       6.393   7.536   0.655  0.00  0.00    +0.000 HD
ATOM      3  H   UNL     1       7.583   8.518  -0.171  0.00  0.00    +0.000 HD
ENDROOT
BRANCH   1   4
ATOM      4  C   UNL     1       7.335   8.913   1.956  0.00  0.00    +0.000 C 
ATOM      5  C   UNL     1       6.982   8.284   3.087  0.00  0.00    +0.000 C 
ATOM      6  H   UNL     1       8.034   9.744   2.017  0.00  0.00    +0.000 HD
ATOM      7  H   UNL     1       7.400   8.627   4.030  0.00  0.00    +0.000 HD
BRANCH   5   8
ATOM      8  C   UNL     1       6.014   7.139   3.137  0.00  0.00    +0.000 C 
ATOM      9  H   UNL     1       5.211   7.233   2.401  0.00  0.00    +0.000 HD
ATOM     10  H   UNL     1       6.556   6.229   2.853  0.00  0.00    +0.000 HD
BRANCH   8  11
ATOM     11  C   UNL     1       5.446   6.956   4.536  0.00  0.00    +0.000 C 
ATOM     12  H   UNL     1       5.296   7.931   5.011  0.00  0.00    +0.000 HD
ATOM     13  H   UNL     1       6.123   6.374   5.170  0.00  0.00    +0.000 HD
ATOM     14  H   UNL     1       4.478   6.444   4.509  0.00  0.00    +0.000 HD
ENDBRANCH   8  11
ENDBRANCH   5   8
ENDBRANCH   1   4
BRANCH   1  15
ATOM     15  C   UNL     1       5.706   9.504   0.148  0.00  0.00    +0.000 C 
ATOM     16  H   UNL     1       5.896  10.500   0.564  0.00  0.00    +0.000 HD
ATOM     17  H   UNL     1       5.691   9.577  -0.947  0.00  0.00    +0.000 HD
BRANCH  15  18
ATOM     18  O   UNL     1       4.447   9.031   0.609  0.00  0.00    +0.000 OA
BRANCH  18  20
ATOM     19  O   UNL     1       3.213   9.699   2.444  0.00  0.00    +0.000 OA
ATOM     20  C   UNL     1       3.711   9.916   1.347  0.00  0.00    +0.000 C 
BRANCH  20  21
ATOM     21  C   UNL     1       3.594  11.218   0.615  0.00  0.00    +0.000 C 
ATOM     22  H   UNL     1       2.622  11.673   0.821  0.00  0.00    +0.000 HD
ATOM     23  H   UNL     1       3.721  11.052  -0.458  0.00  0.00    +0.000 HD
ATOM     24  H   UNL     1       4.378  11.899   0.958  0.00  0.00    +0.000 HD
ENDBRANCH  20  21
ENDBRANCH  18  20
ENDBRANCH  15  18
ENDBRANCH   1  15
TORSDOF 7
ENDMDL
MODEL 2
REMARK VINA RESULT:    -4.408      1.815      3.363
REMARK INTER + INTRA:          -6.285
REMARK INTER:                  -5.844
REMARK INTRA:                  -0.441
REMARK UNBOUND:                -0.331
REMARK  Name = 5363388
REMARK  7 active torsions:
REMARK  status: ('A' for Active; 'I' for Inactive)
REMARK    1  A    between atoms: O_1  and  C_4
REMARK    2  A    between atoms: O_1  and  C_9
REMARK    3  A    between atoms: C_3  and  C_4
REMARK    4  A    between atoms: C_3  and  C_5
REMARK    5  A    between atoms: C_6  and  C_7
REMARK    6  A    between atoms: C_6  and  C_8
REMARK    7  A    between atoms: C_9  and  C_10
REMARK                            x       y       z     vdW  Elec       q    Type
REMARK                         _______ _______ _______ _____ _____    ______ ____
ROOT
ATOM      1  C   UNL     1       6.340   8.528   1.288  0.00  0.00    +0.000 C 
ATOM      2  H   UNL     1       6.919   9.458   1.339  0.00  0.00    +0.000 HD
ATOM      3  H   UNL     1       6.674   7.917   2.131  0.00  0.00    +0.000 HD
ENDROOT
BRANCH   1   4
ATOM      4  C   UNL     1       6.604   7.890  -0.046  0.00  0.00    +0.000 C 
ATOM      5  C   UNL     1       7.409   8.418  -0.980  0.00  0.00    +0.000 C 
ATOM      6  H   UNL     1       6.098   6.953  -0.263  0.00  0.00    +0.000 HD
ATOM      7  H   UNL     1       7.526   7.896  -1.926  0.00  0.00    +0.000 HD
BRANCH   5   8
ATOM      8  C   UNL     1       8.148   9.712  -0.808  0.00  0.00    +0.000 C 
ATOM      9  H   UNL     1       8.506   9.862   0.214  0.00  0.00    +0.000 HD
ATOM     10  H   UNL     1       9.054   9.666  -1.424  0.00  0.00    +0.000 HD
BRANCH   8  11
ATOM     11  C   UNL     1       7.305  10.894  -1.264  0.00  0.00    +0.000 C 
ATOM     12  H   UNL     1       7.064  10.795  -2.327  0.00  0.00    +0.000 HD
ATOM     13  H   UNL     1       7.836  11.841  -1.126  0.00  0.00    +0.000 HD
ATOM     14  H   UNL     1       6.362  10.947  -0.710  0.00  0.00    +0.000 HD
ENDBRANCH   8  11
ENDBRANCH   5   8
ENDBRANCH   1   4
BRANCH   1  15
ATOM     15  C   UNL     1       4.864   8.859   1.473  0.00  0.00    +0.000 C 
ATOM     16  H   UNL     1       4.328   7.960   1.797  0.00  0.00    +0.000 HD
ATOM     17  H   UNL     1       4.743   9.636   2.239  0.00  0.00    +0.000 HD
BRANCH  15  18
ATOM     18  O   UNL     1       4.320   9.317   0.242  0.00  0.00    +0.000 OA
BRANCH  18  20
ATOM     19  O   UNL     1       3.235  11.066   1.291  0.00  0.00    +0.000 OA
ATOM     20  C   UNL     1       3.676  10.522   0.287  0.00  0.00    +0.000 C 
BRANCH  20  21
ATOM     21  C   UNL     1       3.580  11.101  -1.092  0.00  0.00    +0.000 C 
ATOM     22  H   UNL     1       4.482  11.678  -1.315  0.00  0.00    +0.000 HD
ATOM     23  H   UNL     1       2.691  11.732  -1.168  0.00  0.00    +0.000 HD
ATOM     24  H   UNL     1       3.496  10.290  -1.821  0.00  0.00    +0.000 HD
ENDBRANCH  20  21
ENDBRANCH  18  20
ENDBRANCH  15  18
ENDBRANCH   1  15
TORSDOF 7
ENDMDL
MODEL 3
REMARK VINA RESULT:    -4.394      1.742      2.751
REMARK INTER + INTRA:          -6.266
REMARK INTER:                  -6.012
REMARK INTRA:                  -0.255
REMARK UNBOUND:                -0.331
REMARK  Name = 5363388
REMARK  7 active torsions:
REMARK  status: ('A' for Active; 'I' for Inactive)
REMARK    1  A    between atoms: O_1  and  C_4
REMARK    2  A    between atoms: O_1  and  C_9
REMARK    3  A    between atoms: C_3  and  C_4
REMARK    4  A    between atoms: C_3  and  C_5
REMARK    5  A    between atoms: C_6  and  C_7
REMARK    6  A    between atoms: C_6  and  C_8
REMARK    7  A    between atoms: C_9  and  C_10
REMARK                            x       y       z     vdW  Elec       q    Type
REMARK                         _______ _______ _______ _____ _____    ______ ____
ROOT
ATOM      1  C   UNL     1       4.439   8.846   3.978  0.00  0.00    +0.000 C 
ATOM      2  H   UNL     1       5.181   9.648   4.086  0.00  0.00    +0.000 HD
ATOM      3  H   UNL     1       3.645   9.071   4.695  0.00  0.00    +0.000 HD
ENDROOT
BRANCH   1   4
ATOM      4  C   UNL     1       5.127   7.539   4.249  0.00  0.00    +0.000 C 
ATOM      5  C   UNL     1       6.443   7.421   4.480  0.00  0.00    +0.000 C 
ATOM      6  H   UNL     1       4.516   6.640   4.243  0.00  0.00    +0.000 HD
ATOM      7  H   UNL     1       6.859   6.431   4.647  0.00  0.00    +0.000 HD
BRANCH   5   8
ATOM      8  C   UNL     1       7.394   8.581   4.497  0.00  0.00    +0.000 C 
ATOM      9  H   UNL     1       8.272   8.417   3.868  0.00  0.00    +0.000 HD
ATOM     10  H   UNL     1       6.880   9.442   4.052  0.00  0.00    +0.000 HD
BRANCH   8  11
ATOM     11  C   UNL     1       7.806   8.937   5.918  0.00  0.00    +0.000 C 
ATOM     12  H   UNL     1       8.802   8.536   6.131  0.00  0.00    +0.000 HD
ATOM     13  H   UNL     1       7.110   8.519   6.653  0.00  0.00    +0.000 HD
ATOM     14  H   UNL     1       7.844  10.022   6.061  0.00  0.00    +0.000 HD
ENDBRANCH   8  11
ENDBRANCH   5   8
ENDBRANCH   1   4
BRANCH   1  15
ATOM     15  C   UNL     1       3.863   8.899   2.569  0.00  0.00    +0.000 C 
ATOM     16  H   UNL     1       4.661   8.710   1.843  0.00  0.00    +0.000 HD
ATOM     17  H   UNL     1       3.088   8.132   2.447  0.00  0.00    +0.000 HD
BRANCH  15  18
ATOM     18  O   UNL     1       3.300  10.183   2.331  0.00  0.00    +0.000 OA
BRANCH  18  20
ATOM     19  O   UNL     1       2.991  11.728   0.642  0.00  0.00    +0.000 OA
ATOM     20  C   UNL     1       3.399  10.649   1.049  0.00  0.00    +0.000 C 
BRANCH  20  21
ATOM     21  C   UNL     1       4.090   9.635   0.190  0.00  0.00    +0.000 C 
ATOM     22  H   UNL     1       3.482   8.728   0.125  0.00  0.00    +0.000 HD
ATOM     23  H   UNL     1       5.076   9.408   0.604  0.00  0.00    +0.000 HD
ATOM     24  H   UNL     1       4.219  10.040  -0.818  0.00  0.00    +0.000 HD
ENDBRANCH  20  21
ENDBRANCH  18  20
ENDBRANCH  15  18
ENDBRANCH   1  15
TORSDOF 7
ENDMDL
MODEL 4
REMARK VINA RESULT:    -4.269     14.266     15.546
REMARK INTER + INTRA:          -6.097
REMARK INTER:                  -5.573
REMARK INTRA:                  -0.524
REMARK UNBOUND:                -0.331
REMARK  Name = 5363388
REMARK  7 active torsions:
REMARK  status: ('A' for Active; 'I' for Inactive)
REMARK    1  A    between atoms: O_1  and  C_4
REMARK    2  A    between atoms: O_1  and  C_9
REMARK    3  A    between atoms: C_3  and  C_4
REMARK    4  A    between atoms: C_3  and  C_5
REMARK    5  A    between atoms: C_6  and  C_7
REMARK    6  A    between atoms: C_6  and  C_8
REMARK    7  A    between atoms: C_9  and  C_10
REMARK                            x       y       z     vdW  Elec       q    Type
REMARK                         _______ _______ _______ _____ _____    ______ ____
ROOT
ATOM      1  C   UNL     1      -1.912   6.735 -12.707  0.00  0.00    +0.000 C 
ATOM      2  H   UNL     1      -1.907   5.946 -13.470  0.00  0.00    +0.000 HD
ATOM      3  H   UNL     1      -1.341   6.341 -11.862  0.00  0.00    +0.000 HD
ENDROOT
BRANCH   1   4
ATOM      4  C   UNL     1      -3.342   7.039 -12.364  0.00  0.00    +0.000 C 
ATOM      5  C   UNL     1      -3.824   7.045 -11.112  0.00  0.00    +0.000 C 
ATOM      6  H   UNL     1      -4.021   7.252 -13.186  0.00  0.00    +0.000 HD
ATOM      7  H   UNL     1      -4.879   7.257 -10.958  0.00  0.00    +0.000 HD
BRANCH   5   8
ATOM      8  C   UNL     1      -2.995   6.750  -9.897  0.00  0.00    +0.000 C 
ATOM      9  H   UNL     1      -3.084   5.711  -9.568  0.00  0.00    +0.000 HD
ATOM     10  H   UNL     1      -1.940   6.873 -10.173  0.00  0.00    +0.000 HD
BRANCH   8  11
ATOM     11  C   UNL     1      -3.319   7.707  -8.760  0.00  0.00    +0.000 C 
ATOM     12  H   UNL     1      -2.948   8.710  -8.996  0.00  0.00    +0.000 HD
ATOM     13  H   UNL     1      -2.852   7.387  -7.823  0.00  0.00    +0.000 HD
ATOM     14  H   UNL     1      -4.400   7.780  -8.597  0.00  0.00    +0.000 HD
ENDBRANCH   8  11
ENDBRANCH   5   8
ENDBRANCH   1   4
BRANCH   1  15
ATOM     15  C   UNL     1      -1.192   7.957 -13.263  0.00  0.00    +0.000 C 
ATOM     16  H   UNL     1      -0.515   7.646 -14.066  0.00  0.00    +0.000 HD
ATOM     17  H   UNL     1      -1.918   8.671 -13.672  0.00  0.00    +0.000 HD
BRANCH  15  18
ATOM     18  O   UNL     1      -0.443   8.582 -12.228  0.00  0.00    +0.000 OA
BRANCH  18  20
ATOM     19  O   UNL     1      -0.711  10.814 -12.761  0.00  0.00    +0.000 OA
ATOM     20  C   UNL     1      -0.763   9.886 -11.965  0.00  0.00    +0.000 C 
BRANCH  20  21
ATOM     21  C   UNL     1      -1.196  10.027 -10.538  0.00  0.00    +0.000 C 
ATOM     22  H   UNL     1      -1.876  10.878 -10.440  0.00  0.00    +0.000 HD
ATOM     23  H   UNL     1      -0.320  10.158  -9.896  0.00  0.00    +0.000 HD
ATOM     24  H   UNL     1      -1.724   9.121 -10.227  0.00  0.00    +0.000 HD
ENDBRANCH  20  21
ENDBRANCH  18  20
ENDBRANCH  15  18
ENDBRANCH   1  15
TORSDOF 7
ENDMDL
MODEL 5
REMARK VINA RESULT:    -4.183     14.199     15.429
REMARK INTER + INTRA:          -5.981
REMARK INTER:                  -5.502
REMARK INTRA:                  -0.479
REMARK UNBOUND:                -0.331
REMARK  Name = 5363388
REMARK  7 active torsions:
REMARK  status: ('A' for Active; 'I' for Inactive)
REMARK    1  A    between atoms: O_1  and  C_4
REMARK    2  A    between atoms: O_1  and  C_9
REMARK    3  A    between atoms: C_3  and  C_4
REMARK    4  A    between atoms: C_3  and  C_5
REMARK    5  A    between atoms: C_6  and  C_7
REMARK    6  A    between atoms: C_6  and  C_8
REMARK    7  A    between atoms: C_9  and  C_10
REMARK                            x       y       z     vdW  Elec       q    Type
REMARK                         _______ _______ _______ _____ _____    ______ ____
ROOT
ATOM      1  C   UNL     1      -2.663   9.830 -10.495  0.00  0.00    +0.000 C 
ATOM      2  H   UNL     1      -3.189  10.782 -10.346  0.00  0.00    +0.000 HD
ATOM      3  H   UNL     1      -3.105   9.377 -11.386  0.00  0.00    +0.000 HD
ENDROOT
BRANCH   1   4
ATOM      4  C   UNL     1      -2.847   9.000  -9.257  0.00  0.00    +0.000 C 
ATOM      5  C   UNL     1      -3.072   7.677  -9.272  0.00  0.00    +0.000 C 
ATOM      6  H   UNL     1      -2.807   9.512  -8.299  0.00  0.00    +0.000 HD
ATOM      7  H   UNL     1      -3.213   7.160  -8.326  0.00  0.00    +0.000 HD
BRANCH   5   8
ATOM      8  C   UNL     1      -3.168   6.861 -10.527  0.00  0.00    +0.000 C 
ATOM      9  H   UNL     1      -2.513   7.230 -11.321  0.00  0.00    +0.000 HD
ATOM     10  H   UNL     1      -2.801   5.853 -10.301  0.00  0.00    +0.000 HD
BRANCH   8  11
ATOM     11  C   UNL     1      -4.606   6.763 -11.014  0.00  0.00    +0.000 C 
ATOM     12  H   UNL     1      -5.157   6.034 -10.410  0.00  0.00    +0.000 HD
ATOM     13  H   UNL     1      -4.653   6.440 -12.059  0.00  0.00    +0.000 HD
ATOM     14  H   UNL     1      -5.121   7.726 -10.930  0.00  0.00    +0.000 HD
ENDBRANCH   8  11
ENDBRANCH   5   8
ENDBRANCH   1   4
BRANCH   1  15
ATOM     15  C   UNL     1      -1.193  10.121 -10.766  0.00  0.00    +0.000 C 
ATOM     16  H   UNL     1      -1.103  11.079 -11.291  0.00  0.00    +0.000 HD
ATOM     17  H   UNL     1      -0.638  10.184  -9.822  0.00  0.00    +0.000 HD
BRANCH  15  18
ATOM     18  O   UNL     1      -0.641   9.087 -11.572  0.00  0.00    +0.000 OA
BRANCH  18  20
ATOM     19  O   UNL     1      -0.398  10.304 -13.521  0.00  0.00    +0.000 OA
ATOM     20  C   UNL     1      -0.714   9.283 -12.924  0.00  0.00    +0.000 C 
BRANCH  20  21
ATOM     21  C   UNL     1      -1.242   8.050 -13.590  0.00  0.00    +0.000 C 
ATOM     22  H   UNL     1      -0.518   7.236 -13.492  0.00  0.00    +0.000 HD
ATOM     23  H   UNL     1      -1.448   8.257 -14.643  0.00  0.00    +0.000 HD
ATOM     24  H   UNL     1      -2.175   7.746 -13.105  0.00  0.00    +0.000 HD
ENDBRANCH  20  21
ENDBRANCH  18  20
ENDBRANCH  15  18
ENDBRANCH   1  15
TORSDOF 7
ENDMDL
MODEL 6
REMARK VINA RESULT:    -4.155     13.544     14.981
REMARK INTER + INTRA:          -5.943
REMARK INTER:                  -5.674
REMARK INTRA:                  -0.269
REMARK UNBOUND:                -0.331
REMARK  Name = 5363388
REMARK  7 active torsions:
REMARK  status: ('A' for Active; 'I' for Inactive)
REMARK    1  A    between atoms: O_1  and  C_4
REMARK    2  A    between atoms: O_1  and  C_9
REMARK    3  A    between atoms: C_3  and  C_4
REMARK    4  A    between atoms: C_3  and  C_5
REMARK    5  A    between atoms: C_6  and  C_7
REMARK    6  A    between atoms: C_6  and  C_8
REMARK    7  A    between atoms: C_9  and  C_10
REMARK                            x       y       z     vdW  Elec       q    Type
REMARK                         _______ _______ _______ _____ _____    ______ ____
ROOT
ATOM      1  C   UNL     1      -8.866  11.241   6.713  0.00  0.00    +0.000 C 
ATOM      2  H   UNL     1      -9.828  10.714   6.676  0.00  0.00    +0.000 HD
ATOM      3  H   UNL     1      -9.104  12.307   6.678  0.00  0.00    +0.000 HD
ENDROOT
BRANCH   1   4
ATOM      4  C   UNL     1      -8.041  10.781   5.545  0.00  0.00    +0.000 C 
ATOM      5  C   UNL     1      -7.400  11.613   4.710  0.00  0.00    +0.000 C 
ATOM      6  H   UNL     1      -7.977   9.710   5.367  0.00  0.00    +0.000 HD
ATOM      7  H   UNL     1      -6.842  11.191   3.878  0.00  0.00    +0.000 HD
BRANCH   5   8
ATOM      8  C   UNL     1      -7.427  13.107   4.838  0.00  0.00    +0.000 C 
ATOM      9  H   UNL     1      -7.732  13.605   3.914  0.00  0.00    +0.000 HD
ATOM     10  H   UNL     1      -8.201  13.367   5.571  0.00  0.00    +0.000 HD
BRANCH   8  11
ATOM     11  C   UNL     1      -6.090  13.644   5.326  0.00  0.00    +0.000 C 
ATOM     12  H   UNL     1      -6.039  14.726   5.164  0.00  0.00    +0.000 HD
ATOM     13  H   UNL     1      -5.254  13.183   4.789  0.00  0.00    +0.000 HD
ATOM     14  H   UNL     1      -5.953  13.459   6.396  0.00  0.00    +0.000 HD
ENDBRANCH   8  11
ENDBRANCH   5   8
ENDBRANCH   1   4
BRANCH   1  15
ATOM     15  C   UNL     1      -8.188  10.929   8.041  0.00  0.00    +0.000 C 
ATOM     16  H   UNL     1      -7.108  11.082   7.942  0.00  0.00    +0.000 HD
ATOM     17  H   UNL     1      -8.567  11.595   8.827  0.00  0.00    +0.000 HD
BRANCH  15  18
ATOM     18  O   UNL     1      -8.443   9.577   8.402  0.00  0.00    +0.000 OA
BRANCH  18  20
ATOM     19  O   UNL     1      -8.258   8.175  10.228  0.00  0.00    +0.000 OA
ATOM     20  C   UNL     1      -7.926   9.173   9.602  0.00  0.00    +0.000 C 
BRANCH  20  21
ATOM     21  C   UNL     1      -6.874  10.138  10.055  0.00  0.00    +0.000 C 
ATOM     22  H   UNL     1      -6.727  10.045  11.135  0.00  0.00    +0.000 HD
ATOM     23  H   UNL     1      -7.168  11.157   9.793  0.00  0.00    +0.000 HD
ATOM     24  H   UNL     1      -5.929   9.907   9.554  0.00  0.00    +0.000 HD
ENDBRANCH  20  21
ENDBRANCH  18  20
ENDBRANCH  15  18
ENDBRANCH   1  15
TORSDOF 7
ENDMDL
MODEL 7
REMARK VINA RESULT:    -4.029     14.353     15.655
REMARK INTER + INTRA:          -5.773
REMARK INTER:                  -5.379
REMARK INTRA:                  -0.393
REMARK UNBOUND:                -0.331
REMARK  Name = 5363388
REMARK  7 active torsions:
REMARK  status: ('A' for Active; 'I' for Inactive)
REMARK    1  A    between atoms: O_1  and  C_4
REMARK    2  A    between atoms: O_1  and  C_9
REMARK    3  A    between atoms: C_3  and  C_4
REMARK    4  A    between atoms: C_3  and  C_5
REMARK    5  A    between atoms: C_6  and  C_7
REMARK    6  A    between atoms: C_6  and  C_8
REMARK    7  A    between atoms: C_9  and  C_10
REMARK                            x       y       z     vdW  Elec       q    Type
REMARK                         _______ _______ _______ _____ _____    ______ ____
ROOT
ATOM      1  C   UNL     1      -2.145   6.748 -11.124  0.00  0.00    +0.000 C 
ATOM      2  H   UNL     1      -1.715   5.742 -11.213  0.00  0.00    +0.000 HD
ATOM      3  H   UNL     1      -1.300   7.425 -10.977  0.00  0.00    +0.000 HD
ENDROOT
BRANCH   1   4
ATOM      4  C   UNL     1      -3.105   6.741  -9.969  0.00  0.00    +0.000 C 
ATOM      5  C   UNL     1      -3.207   7.738  -9.077  0.00  0.00    +0.000 C 
ATOM      6  H   UNL     1      -3.740   5.867  -9.850  0.00  0.00    +0.000 HD
ATOM      7  H   UNL     1      -3.917   7.639  -8.260  0.00  0.00    +0.000 HD
BRANCH   5   8
ATOM      8  C   UNL     1      -2.375   8.986  -9.122  0.00  0.00    +0.000 C 
ATOM      9  H   UNL     1      -2.121   9.360  -8.127  0.00  0.00    +0.000 HD
ATOM     10  H   UNL     1      -1.414   8.731  -9.585  0.00  0.00    +0.000 HD
BRANCH   8  11
ATOM     11  C   UNL     1      -3.049  10.069  -9.952  0.00  0.00    +0.000 C 
ATOM     12  H   UNL     1      -2.597  10.113 -10.948  0.00  0.00    +0.000 HD
ATOM     13  H   UNL     1      -2.938  11.055  -9.487  0.00  0.00    +0.000 HD
ATOM     14  H   UNL     1      -4.118   9.868 -10.076  0.00  0.00    +0.000 HD
ENDBRANCH   8  11
ENDBRANCH   5   8
ENDBRANCH   1   4
BRANCH   1  15
ATOM     15  C   UNL     1      -2.839   7.101 -12.433  0.00  0.00    +0.000 C 
ATOM     16  H   UNL     1      -3.357   6.216 -12.820  0.00  0.00    +0.000 HD
ATOM     17  H   UNL     1      -3.577   7.897 -12.269  0.00  0.00    +0.000 HD
BRANCH  15  18
ATOM     18  O   UNL     1      -1.875   7.537 -13.383  0.00  0.00    +0.000 OA
BRANCH  18  20
ATOM     19  O   UNL     1      -2.283   9.810 -13.322  0.00  0.00    +0.000 OA
ATOM     20  C   UNL     1      -1.517   8.855 -13.308  0.00  0.00    +0.000 C 
BRANCH  20  21
ATOM     21  C   UNL     1      -0.028   8.974 -13.204  0.00  0.00    +0.000 C 
ATOM     22  H   UNL     1       0.449   8.166 -13.767  0.00  0.00    +0.000 HD
ATOM     23  H   UNL     1       0.275   8.943 -12.155  0.00  0.00    +0.000 HD
ATOM     24  H   UNL     1       0.290   9.930 -13.631  0.00  0.00    +0.000 HD
ENDBRANCH  20  21
ENDBRANCH  18  20
ENDBRANCH  15  18
ENDBRANCH   1  15
TORSDOF 7
ENDMDL
MODEL 8
REMARK VINA RESULT:    -4.023     28.160     29.106
REMARK INTER + INTRA:          -5.765
REMARK INTER:                  -5.591
REMARK INTRA:                  -0.175
REMARK UNBOUND:                -0.331
REMARK  Name = 5363388
REMARK  7 active torsions:
REMARK  status: ('A' for Active; 'I' for Inactive)
REMARK    1  A    between atoms: O_1  and  C_4
REMARK    2  A    between atoms: O_1  and  C_9
REMARK    3  A    between atoms: C_3  and  C_4
REMARK    4  A    between atoms: C_3  and  C_5
REMARK    5  A    between atoms: C_6  and  C_7
REMARK    6  A    between atoms: C_6  and  C_8
REMARK    7  A    between atoms: C_9  and  C_10
REMARK                            x       y       z     vdW  Elec       q    Type
REMARK                         _______ _______ _______ _____ _____    ______ ____
ROOT
ATOM      1  C   UNL     1     -20.922  -2.254   5.423  0.00  0.00    +0.000 C 
ATOM      2  H   UNL     1     -20.580  -2.000   4.412  0.00  0.00    +0.000 HD
ATOM      3  H   UNL     1     -22.013  -2.290   5.374  0.00  0.00    +0.000 HD
ENDROOT
BRANCH   1   4
ATOM      4  C   UNL     1     -20.407  -1.202   6.364  0.00  0.00    +0.000 C 
ATOM      5  C   UNL     1     -21.068  -0.789   7.456  0.00  0.00    +0.000 C 
ATOM      6  H   UNL     1     -19.449  -0.746   6.130  0.00  0.00    +0.000 HD
ATOM      7  H   UNL     1     -20.629  -0.007   8.070  0.00  0.00    +0.000 HD
BRANCH   5   8
ATOM      8  C   UNL     1     -22.405  -1.327   7.875  0.00  0.00    +0.000 C 
ATOM      9  H   UNL     1     -23.164  -1.225   7.095  0.00  0.00    +0.000 HD
ATOM     10  H   UNL     1     -22.298  -2.407   8.030  0.00  0.00    +0.000 HD
BRANCH   8  11
ATOM     11  C   UNL     1     -22.875  -0.688   9.174  0.00  0.00    +0.000 C 
ATOM     12  H   UNL     1     -23.913  -0.355   9.073  0.00  0.00    +0.000 HD
ATOM     13  H   UNL     1     -22.265   0.183   9.435  0.00  0.00    +0.000 HD
ATOM     14  H   UNL     1     -22.829  -1.399  10.005  0.00  0.00    +0.000 HD
ENDBRANCH   8  11
ENDBRANCH   5   8
ENDBRANCH   1   4
BRANCH   1  15
ATOM     15  C   UNL     1     -20.398  -3.639   5.784  0.00  0.00    +0.000 C 
ATOM     16  H   UNL     1     -19.349  -3.561   6.092  0.00  0.00    +0.000 HD
ATOM     17  H   UNL     1     -20.978  -4.059   6.615  0.00  0.00    +0.000 HD
BRANCH  15  18
ATOM     18  O   UNL     1     -20.497  -4.496   4.654  0.00  0.00    +0.000 OA
BRANCH  18  20
ATOM     19  O   UNL     1     -18.511  -5.573   5.134  0.00  0.00    +0.000 OA
ATOM     20  C   UNL     1     -19.370  -5.205   4.343  0.00  0.00    +0.000 C 
BRANCH  20  21
ATOM     21  C   UNL     1     -19.328  -5.477   2.871  0.00  0.00    +0.000 C 
ATOM     22  H   UNL     1     -18.434  -6.059   2.627  0.00  0.00    +0.000 HD
ATOM     23  H   UNL     1     -19.334  -4.533   2.319  0.00  0.00    +0.000 HD
ATOM     24  H   UNL     1     -20.210  -6.056   2.583  0.00  0.00    +0.000 HD
ENDBRANCH  20  21
ENDBRANCH  18  20
ENDBRANCH  15  18
ENDBRANCH   1  15
TORSDOF 7
ENDMDL
MODEL 9
REMARK VINA RESULT:    -3.985      4.025      5.629
REMARK INTER + INTRA:          -5.713
REMARK INTER:                  -5.494
REMARK INTRA:                  -0.220
REMARK UNBOUND:                -0.331
REMARK  Name = 5363388
REMARK  7 active torsions:
REMARK  status: ('A' for Active; 'I' for Inactive)
REMARK    1  A    between atoms: O_1  and  C_4
REMARK    2  A    between atoms: O_1  and  C_9
REMARK    3  A    between atoms: C_3  and  C_4
REMARK    4  A    between atoms: C_3  and  C_5
REMARK    5  A    between atoms: C_6  and  C_7
REMARK    6  A    between atoms: C_6  and  C_8
REMARK    7  A    between atoms: C_9  and  C_10
REMARK                            x       y       z     vdW  Elec       q    Type
REMARK                         _______ _______ _______ _____ _____    ______ ____
ROOT
ATOM      1  C   UNL     1       7.392   8.534   4.617  0.00  0.00    +0.000 C 
ATOM      2  H   UNL     1       6.833   9.368   4.174  0.00  0.00    +0.000 HD
ATOM      3  H   UNL     1       8.223   8.331   3.937  0.00  0.00    +0.000 HD
ENDROOT
BRANCH   1   4
ATOM      4  C   UNL     1       6.451   7.373   4.765  0.00  0.00    +0.000 C 
ATOM      5  C   UNL     1       5.468   7.093   3.895  0.00  0.00    +0.000 C 
ATOM      6  H   UNL     1       6.573   6.735   5.637  0.00  0.00    +0.000 HD
ATOM      7  H   UNL     1       4.821   6.242   4.092  0.00  0.00    +0.000 HD
BRANCH   5   8
ATOM      8  C   UNL     1       5.186   7.905   2.666  0.00  0.00    +0.000 C 
ATOM      9  H   UNL     1       6.075   8.411   2.281  0.00  0.00    +0.000 HD
ATOM     10  H   UNL     1       4.882   7.215   1.870  0.00  0.00    +0.000 HD
BRANCH   8  11
ATOM     11  C   UNL     1       4.061   8.901   2.908  0.00  0.00    +0.000 C 
ATOM     12  H   UNL     1       3.677   9.273   1.952  0.00  0.00    +0.000 HD
ATOM     13  H   UNL     1       4.407   9.762   3.490  0.00  0.00    +0.000 HD
ATOM     14  H   UNL     1       3.228   8.437   3.446  0.00  0.00    +0.000 HD
ENDBRANCH   8  11
ENDBRANCH   5   8
ENDBRANCH   1   4
BRANCH   1  15
ATOM     15  C   UNL     1       7.952   8.980   5.962  0.00  0.00    +0.000 C 
ATOM     16  H   UNL     1       7.906   8.145   6.670  0.00  0.00    +0.000 HD
ATOM     17  H   UNL     1       8.999   9.291   5.853  0.00  0.00    +0.000 HD
BRANCH  15  18
ATOM     18  O   UNL     1       7.184  10.068   6.462  0.00  0.00    +0.000 OA
BRANCH  18  20
ATOM     19  O   UNL     1       7.744  12.021   7.560  0.00  0.00    +0.000 OA
ATOM     20  C   UNL     1       7.769  10.802   7.457  0.00  0.00    +0.000 C 
BRANCH  20  21
ATOM     21  C   UNL     1       8.459   9.892   8.425  0.00  0.00    +0.000 C 
ATOM     22  H   UNL     1       7.729   9.472   9.123  0.00  0.00    +0.000 HD
ATOM     23  H   UNL     1       9.234  10.442   8.964  0.00  0.00    +0.000 HD
ATOM     24  H   UNL     1       8.931   9.070   7.879  0.00  0.00    +0.000 HD
ENDBRANCH  20  21
ENDBRANCH  18  20
ENDBRANCH  15  18
ENDBRANCH   1  15
TORSDOF 7
ENDMDL
MODEL 10
REMARK VINA RESULT:    -3.829     14.382     15.626
REMARK INTER + INTRA:          -5.503
REMARK INTER:                  -5.173
REMARK INTRA:                  -0.331
REMARK UNBOUND:                -0.331
REMARK  Name = 5363388
REMARK  7 active torsions:
REMARK  status: ('A' for Active; 'I' for Inactive)
REMARK    1  A    between atoms: O_1  and  C_4
REMARK    2  A    between atoms: O_1  and  C_9
REMARK    3  A    between atoms: C_3  and  C_4
REMARK    4  A    between atoms: C_3  and  C_5
REMARK    5  A    between atoms: C_6  and  C_7
REMARK    6  A    between atoms: C_6  and  C_8
REMARK    7  A    between atoms: C_9  and  C_10
REMARK                            x       y       z     vdW  Elec       q    Type
REMARK                         _______ _______ _______ _____ _____    ______ ____
ROOT
ATOM      1  C   UNL     1      -1.153   9.955 -11.700  0.00  0.00    +0.000 C 
ATOM      2  H   UNL     1      -0.743  10.903 -12.072  0.00  0.00    +0.000 HD
ATOM      3  H   UNL     1      -2.130   9.841 -12.176  0.00  0.00    +0.000 HD
ENDROOT
BRANCH   1   4
ATOM      4  C   UNL     1      -1.232  10.041 -10.202  0.00  0.00    +0.000 C 
ATOM      5  C   UNL     1      -2.119   9.360  -9.461  0.00  0.00    +0.000 C 
ATOM      6  H   UNL     1      -0.534  10.706  -9.701  0.00  0.00    +0.000 HD
ATOM      7  H   UNL     1      -2.117   9.499  -8.383  0.00  0.00    +0.000 HD
BRANCH   5   8
ATOM      8  C   UNL     1      -3.143   8.426 -10.035  0.00  0.00    +0.000 C 
ATOM      9  H   UNL     1      -4.147   8.860 -10.054  0.00  0.00    +0.000 HD
ATOM     10  H   UNL     1      -2.888   8.254 -11.088  0.00  0.00    +0.000 HD
BRANCH   8  11
ATOM     11  C   UNL     1      -3.145   7.091  -9.306  0.00  0.00    +0.000 C 
ATOM     12  H   UNL     1      -3.749   6.363  -9.857  0.00  0.00    +0.000 HD
ATOM     13  H   UNL     1      -3.567   7.186  -8.300  0.00  0.00    +0.000 HD
ATOM     14  H   UNL     1      -2.132   6.686  -9.215  0.00  0.00    +0.000 HD
ENDBRANCH   8  11
ENDBRANCH   5   8
ENDBRANCH   1   4
BRANCH   1  15
ATOM     15  C   UNL     1      -0.247   8.818 -12.153  0.00  0.00    +0.000 C 
ATOM     16  H   UNL     1       0.798   9.090 -11.967  0.00  0.00    +0.000 HD
ATOM     17  H   UNL     1      -0.478   7.903 -11.593  0.00  0.00    +0.000 HD
BRANCH  15  18
ATOM     18  O   UNL     1      -0.434   8.583 -13.544  0.00  0.00    +0.000 OA
BRANCH  18  20
ATOM     19  O   UNL     1      -2.227   7.951 -14.855  0.00  0.00    +0.000 OA
ATOM     20  C   UNL     1      -1.505   7.802 -13.878  0.00  0.00    +0.000 C 
BRANCH  20  21
ATOM     21  C   UNL     1      -1.678   6.713 -12.864  0.00  0.00    +0.000 C 
ATOM     22  H   UNL     1      -2.691   6.749 -12.452  0.00  0.00    +0.000 HD
ATOM     23  H   UNL     1      -0.936   6.824 -12.070  0.00  0.00    +0.000 HD
ATOM     24  H   UNL     1      -1.532   5.742 -13.345  0.00  0.00    +0.000 HD
ENDBRANCH  20  21
ENDBRANCH  18  20
ENDBRANCH  15  18
ENDBRANCH   1  15
TORSDOF 7
ENDMDL
