MODEL 1
REMARK VINA RESULT:    -5.220      0.000      0.000
REMARK INTER + INTRA:          -6.331
REMARK INTER:                  -6.122
REMARK INTRA:                  -0.209
REMARK UNBOUND:                -0.196
REMARK  Name = 17100
REMARK  5 active torsions:
REMARK  status: ('A' for Active; 'I' for Inactive)
REMARK    1  A    between atoms: O_1  and  C_3
REMARK    2  A    between atoms: C_2  and  C_3
REMARK    3  A    between atoms: C_3  and  C_9
REMARK    4  A    between atoms: C_3  and  C_10
REMARK    5  A    between atoms: C_7  and  C_11
REMARK                            x       y       z     vdW  Elec       q    Type
REMARK                         _______ _______ _______ _____ _____    ______ ____
ROOT
ATOM      1  C   UNL     1      -2.068   7.893 -10.995  0.00  0.00    +0.000 C 
ATOM      2  C   UNL     1      -2.481   8.521  -9.659  0.00  0.00    +0.000 C 
ATOM      3  C   UNL     1      -3.311   7.450 -11.780  0.00  0.00    +0.000 C 
ATOM      4  C   UNL     1      -3.284   7.531  -8.807  0.00  0.00    +0.000 C 
ATOM      5  C   UNL     1      -4.316   6.757  -9.589  0.00  0.00    +0.000 C 
ATOM      6  C   UNL     1      -4.326   6.741 -10.932  0.00  0.00    +0.000 C 
ATOM      7  H   UNL     1      -1.467   6.999 -10.771  0.00  0.00    +0.000 HD
ATOM      8  H   UNL     1      -3.088   9.419  -9.830  0.00  0.00    +0.000 HD
ATOM      9  H   UNL     1      -1.617   8.826  -9.060  0.00  0.00    +0.000 HD
ATOM     10  H   UNL     1      -3.013   6.761 -12.579  0.00  0.00    +0.000 HD
ATOM     11  H   UNL     1      -3.817   8.298 -12.259  0.00  0.00    +0.000 HD
ATOM     12  H   UNL     1      -3.770   8.087  -7.997  0.00  0.00    +0.000 HD
ATOM     13  H   UNL     1      -2.597   6.815  -8.339  0.00  0.00    +0.000 HD
ATOM     14  H   UNL     1      -5.099   6.188 -11.461  0.00  0.00    +0.000 HD
ENDROOT
BRANCH   5  15
ATOM     15  C   UNL     1      -5.330   6.004  -8.778  0.00  0.00    +0.000 C 
ATOM     16  H   UNL     1      -5.584   6.565  -7.873  0.00  0.00    +0.000 HD
ATOM     17  H   UNL     1      -4.963   5.019  -8.469  0.00  0.00    +0.000 HD
ATOM     18  H   UNL     1      -6.245   5.851  -9.361  0.00  0.00    +0.000 HD
ENDBRANCH   5  15
BRANCH   1  19
ATOM     19  C   UNL     1      -1.222   8.861 -11.819  0.00  0.00    +0.000 C 
BRANCH  19  20
ATOM     20  C   UNL     1      -0.976  10.160 -11.053  0.00  0.00    +0.000 C 
ATOM     21  H   UNL     1      -0.412   9.987 -10.130  0.00  0.00    +0.000 HD
ATOM     22  H   UNL     1      -1.926  10.635 -10.784  0.00  0.00    +0.000 HD
ATOM     23  H   UNL     1      -0.446  10.901 -11.661  0.00  0.00    +0.000 HD
ENDBRANCH  19  20
BRANCH  19  24
ATOM     24  C   UNL     1      -1.890   9.149 -13.163  0.00  0.00    +0.000 C 
ATOM     25  H   UNL     1      -2.155  10.205 -13.280  0.00  0.00    +0.000 HD
ATOM     26  H   UNL     1      -1.266   8.834 -14.006  0.00  0.00    +0.000 HD
ATOM     27  H   UNL     1      -2.843   8.612 -13.239  0.00  0.00    +0.000 HD
ENDBRANCH  19  24
BRANCH  19  28
ATOM     28  O   UNL     1       0.039   8.247 -12.090  0.00  0.00    +0.000 OA
ATOM     29  H   UNL     1      -0.094   7.581 -12.786  0.00  0.00    +0.000 HD
ENDBRANCH  19  28
ENDBRANCH   1  19
TORSDOF 5
ENDMDL
MODEL 2
REMARK VINA RESULT:    -5.062      0.993      1.926
REMARK INTER + INTRA:          -6.145
REMARK INTER:                  -5.965
REMARK INTRA:                  -0.181
REMARK UNBOUND:                -0.196
REMARK  Name = 17100
REMARK  5 active torsions:
REMARK  status: ('A' for Active; 'I' for Inactive)
REMARK    1  A    between atoms: O_1  and  C_3
REMARK    2  A    between atoms: C_2  and  C_3
REMARK    3  A    between atoms: C_3  and  C_9
REMARK    4  A    between atoms: C_3  and  C_10
REMARK    5  A    between atoms: C_7  and  C_11
REMARK                            x       y       z     vdW  Elec       q    Type
REMARK                         _______ _______ _______ _____ _____    ______ ____
ROOT
ATOM      1  C   UNL     1      -2.563   8.751 -11.055  0.00  0.00    +0.000 C 
ATOM      2  C   UNL     1      -2.792   7.344 -11.619  0.00  0.00    +0.000 C 
ATOM      3  C   UNL     1      -2.372   8.688  -9.532  0.00  0.00    +0.000 C 
ATOM      4  C   UNL     1      -4.025   6.688 -10.987  0.00  0.00    +0.000 C 
ATOM      5  C   UNL     1      -4.121   6.890  -9.495  0.00  0.00    +0.000 C 
ATOM      6  C   UNL     1      -3.358   7.787  -8.848  0.00  0.00    +0.000 C 
ATOM      7  H   UNL     1      -3.467   9.343 -11.263  0.00  0.00    +0.000 HD
ATOM      8  H   UNL     1      -1.915   6.711 -11.433  0.00  0.00    +0.000 HD
ATOM      9  H   UNL     1      -2.957   7.354 -12.700  0.00  0.00    +0.000 HD
ATOM     10  H   UNL     1      -2.495   9.691  -9.106  0.00  0.00    +0.000 HD
ATOM     11  H   UNL     1      -1.367   8.343  -9.260  0.00  0.00    +0.000 HD
ATOM     12  H   UNL     1      -4.001   5.616 -11.217  0.00  0.00    +0.000 HD
ATOM     13  H   UNL     1      -4.931   7.097 -11.451  0.00  0.00    +0.000 HD
ATOM     14  H   UNL     1      -3.441   7.889  -7.769  0.00  0.00    +0.000 HD
ENDROOT
BRANCH   5  15
ATOM     15  C   UNL     1      -5.121   6.032  -8.776  0.00  0.00    +0.000 C 
ATOM     16  H   UNL     1      -4.760   5.000  -8.715  0.00  0.00    +0.000 HD
ATOM     17  H   UNL     1      -6.092   6.016  -9.284  0.00  0.00    +0.000 HD
ATOM     18  H   UNL     1      -5.282   6.407  -7.760  0.00  0.00    +0.000 HD
ENDBRANCH   5  15
BRANCH   1  19
ATOM     19  C   UNL     1      -1.368   9.425 -11.724  0.00  0.00    +0.000 C 
BRANCH  19  20
ATOM     20  C   UNL     1      -1.820  10.317 -12.880  0.00  0.00    +0.000 C 
ATOM     21  H   UNL     1      -2.674  10.942 -12.600  0.00  0.00    +0.000 HD
ATOM     22  H   UNL     1      -2.116   9.709 -13.744  0.00  0.00    +0.000 HD
ATOM     23  H   UNL     1      -1.011  10.959 -13.243  0.00  0.00    +0.000 HD
ENDBRANCH  19  20
BRANCH  19  24
ATOM     24  C   UNL     1      -0.365   8.380 -12.214  0.00  0.00    +0.000 C 
ATOM     25  H   UNL     1      -0.575   8.046 -13.235  0.00  0.00    +0.000 HD
ATOM     26  H   UNL     1       0.666   8.743 -12.153  0.00  0.00    +0.000 HD
ATOM     27  H   UNL     1      -0.432   7.471 -11.603  0.00  0.00    +0.000 HD
ENDBRANCH  19  24
BRANCH  19  28
ATOM     28  O   UNL     1      -0.702  10.238 -10.757  0.00  0.00    +0.000 OA
ATOM     29  H   UNL     1      -0.334  11.012 -11.217  0.00  0.00    +0.000 HD
ENDBRANCH  19  28
ENDBRANCH   1  19
TORSDOF 5
ENDMDL
MODEL 3
REMARK VINA RESULT:    -4.898      1.398      2.055
REMARK INTER + INTRA:          -5.953
REMARK INTER:                  -5.745
REMARK INTRA:                  -0.208
REMARK UNBOUND:                -0.196
REMARK  Name = 17100
REMARK  5 active torsions:
REMARK  status: ('A' for Active; 'I' for Inactive)
REMARK    1  A    between atoms: O_1  and  C_3
REMARK    2  A    between atoms: C_2  and  C_3
REMARK    3  A    between atoms: C_3  and  C_9
REMARK    4  A    between atoms: C_3  and  C_10
REMARK    5  A    between atoms: C_7  and  C_11
REMARK                            x       y       z     vdW  Elec       q    Type
REMARK                         _______ _______ _______ _____ _____    ______ ____
ROOT
ATOM      1  C   UNL     1      -1.036   8.550 -12.287  0.00  0.00    +0.000 C 
ATOM      2  C   UNL     1      -1.988   9.497 -11.548  0.00  0.00    +0.000 C 
ATOM      3  C   UNL     1      -1.694   7.175 -12.474  0.00  0.00    +0.000 C 
ATOM      4  C   UNL     1      -2.371   8.936 -10.175  0.00  0.00    +0.000 C 
ATOM      5  C   UNL     1      -2.691   7.462 -10.190  0.00  0.00    +0.000 C 
ATOM      6  C   UNL     1      -2.392   6.680 -11.242  0.00  0.00    +0.000 C 
ATOM      7  H   UNL     1      -0.142   8.420 -11.659  0.00  0.00    +0.000 HD
ATOM      8  H   UNL     1      -2.900   9.657 -12.137  0.00  0.00    +0.000 HD
ATOM      9  H   UNL     1      -1.541  10.481 -11.376  0.00  0.00    +0.000 HD
ATOM     10  H   UNL     1      -0.928   6.435 -12.735  0.00  0.00    +0.000 HD
ATOM     11  H   UNL     1      -2.428   7.180 -13.289  0.00  0.00    +0.000 HD
ATOM     12  H   UNL     1      -3.233   9.501  -9.800  0.00  0.00    +0.000 HD
ATOM     13  H   UNL     1      -1.546   9.104  -9.471  0.00  0.00    +0.000 HD
ATOM     14  H   UNL     1      -2.657   5.626 -11.224  0.00  0.00    +0.000 HD
ENDROOT
BRANCH   5  15
ATOM     15  C   UNL     1      -3.359   6.919  -8.961  0.00  0.00    +0.000 C 
ATOM     16  H   UNL     1      -4.430   7.148  -8.980  0.00  0.00    +0.000 HD
ATOM     17  H   UNL     1      -2.943   7.345  -8.042  0.00  0.00    +0.000 HD
ATOM     18  H   UNL     1      -3.236   5.832  -8.910  0.00  0.00    +0.000 HD
ENDBRANCH   5  15
BRANCH   1  19
ATOM     19  C   UNL     1      -0.611   9.135 -13.632  0.00  0.00    +0.000 C 
BRANCH  19  20
ATOM     20  C   UNL     1      -0.954  10.622 -13.714  0.00  0.00    +0.000 C 
ATOM     21  H   UNL     1      -0.561  11.080 -14.628  0.00  0.00    +0.000 HD
ATOM     22  H   UNL     1      -0.535  11.163 -12.858  0.00  0.00    +0.000 HD
ATOM     23  H   UNL     1      -2.034  10.797 -13.664  0.00  0.00    +0.000 HD
ENDBRANCH  19  20
BRANCH  19  24
ATOM     24  C   UNL     1      -1.264   8.370 -14.782  0.00  0.00    +0.000 C 
ATOM     25  H   UNL     1      -2.110   7.758 -14.451  0.00  0.00    +0.000 HD
ATOM     26  H   UNL     1      -1.590   9.039 -15.585  0.00  0.00    +0.000 HD
ATOM     27  H   UNL     1      -0.555   7.654 -15.216  0.00  0.00    +0.000 HD
ENDBRANCH  19  24
BRANCH  19  28
ATOM     28  O   UNL     1       0.803   8.987 -13.767  0.00  0.00    +0.000 OA
ATOM     29  H   UNL     1       1.034   8.072 -13.533  0.00  0.00    +0.000 HD
ENDBRANCH  19  28
ENDBRANCH   1  19
TORSDOF 5
ENDMDL
MODEL 4
REMARK VINA RESULT:    -4.831      7.635      8.789
REMARK INTER + INTRA:          -5.875
REMARK INTER:                  -5.712
REMARK INTRA:                  -0.163
REMARK UNBOUND:                -0.196
REMARK  Name = 17100
REMARK  5 active torsions:
REMARK  status: ('A' for Active; 'I' for Inactive)
REMARK    1  A    between atoms: O_1  and  C_3
REMARK    2  A    between atoms: C_2  and  C_3
REMARK    3  A    between atoms: C_3  and  C_9
REMARK    4  A    between atoms: C_3  and  C_10
REMARK    5  A    between atoms: C_7  and  C_11
REMARK                            x       y       z     vdW  Elec       q    Type
REMARK                         _______ _______ _______ _____ _____    ______ ____
ROOT
ATOM      1  C   UNL     1      -9.465   6.201  -6.352  0.00  0.00    +0.000 C 
ATOM      2  C   UNL     1      -9.357   7.437  -5.452  0.00  0.00    +0.000 C 
ATOM      3  C   UNL     1      -9.069   6.558  -7.793  0.00  0.00    +0.000 C 
ATOM      4  C   UNL     1     -10.262   8.567  -5.953  0.00  0.00    +0.000 C 
ATOM      5  C   UNL     1     -10.219   8.760  -7.449  0.00  0.00    +0.000 C 
ATOM      6  C   UNL     1      -9.664   7.851  -8.267  0.00  0.00    +0.000 C 
ATOM      7  H   UNL     1     -10.517   5.881  -6.354  0.00  0.00    +0.000 HD
ATOM      8  H   UNL     1      -8.321   7.796  -5.419  0.00  0.00    +0.000 HD
ATOM      9  H   UNL     1      -9.656   7.224  -4.421  0.00  0.00    +0.000 HD
ATOM     10  H   UNL     1      -9.414   5.770  -8.473  0.00  0.00    +0.000 HD
ATOM     11  H   UNL     1      -7.981   6.632  -7.912  0.00  0.00    +0.000 HD
ATOM     12  H   UNL     1      -9.967   9.495  -5.449  0.00  0.00    +0.000 HD
ATOM     13  H   UNL     1     -11.300   8.358  -5.661  0.00  0.00    +0.000 HD
ATOM     14  H   UNL     1      -9.633   8.035  -9.338  0.00  0.00    +0.000 HD
ENDROOT
BRANCH   5  15
ATOM     15  C   UNL     1     -10.835  10.026  -7.968  0.00  0.00    +0.000 C 
ATOM     16  H   UNL     1     -11.495   9.807  -8.814  0.00  0.00    +0.000 HD
ATOM     17  H   UNL     1     -10.080  10.742  -8.311  0.00  0.00    +0.000 HD
ATOM     18  H   UNL     1     -11.424  10.513  -7.184  0.00  0.00    +0.000 HD
ENDBRANCH   5  15
BRANCH   1  19
ATOM     19  C   UNL     1      -8.604   5.056  -5.822  0.00  0.00    +0.000 C 
BRANCH  19  20
ATOM     20  C   UNL     1      -7.834   4.381  -6.956  0.00  0.00    +0.000 C 
ATOM     21  H   UNL     1      -8.461   4.236  -7.842  0.00  0.00    +0.000 HD
ATOM     22  H   UNL     1      -7.463   3.399  -6.640  0.00  0.00    +0.000 HD
ATOM     23  H   UNL     1      -6.941   4.948  -7.239  0.00  0.00    +0.000 HD
ENDBRANCH  19  20
BRANCH  19  24
ATOM     24  C   UNL     1      -9.465   4.036  -5.077  0.00  0.00    +0.000 C 
ATOM     25  H   UNL     1      -9.148   3.005  -5.266  0.00  0.00    +0.000 HD
ATOM     26  H   UNL     1      -9.477   4.222  -3.998  0.00  0.00    +0.000 HD
ATOM     27  H   UNL     1     -10.502   4.080  -5.432  0.00  0.00    +0.000 HD
ENDBRANCH  19  24
BRANCH  19  28
ATOM     28  O   UNL     1      -7.664   5.588  -4.887  0.00  0.00    +0.000 OA
ATOM     29  H   UNL     1      -6.776   5.292  -5.153  0.00  0.00    +0.000 HD
ENDBRANCH  19  28
ENDBRANCH   1  19
TORSDOF 5
ENDMDL
MODEL 5
REMARK VINA RESULT:    -4.814     17.756     19.418
REMARK INTER + INTRA:          -5.854
REMARK INTER:                  -5.669
REMARK INTRA:                  -0.185
REMARK UNBOUND:                -0.196
REMARK  Name = 17100
REMARK  5 active torsions:
REMARK  status: ('A' for Active; 'I' for Inactive)
REMARK    1  A    between atoms: O_1  and  C_3
REMARK    2  A    between atoms: C_2  and  C_3
REMARK    3  A    between atoms: C_3  and  C_9
REMARK    4  A    between atoms: C_3  and  C_10
REMARK    5  A    between atoms: C_7  and  C_11
REMARK                            x       y       z     vdW  Elec       q    Type
REMARK                         _______ _______ _______ _____ _____    ______ ____
ROOT
ATOM      1  C   UNL     1      -8.838  11.199   7.172  0.00  0.00    +0.000 C 
ATOM      2  C   UNL     1      -7.720  11.822   8.016  0.00  0.00    +0.000 C 
ATOM      3  C   UNL     1      -8.306  10.817   5.783  0.00  0.00    +0.000 C 
ATOM      4  C   UNL     1      -7.147  13.071   7.338  0.00  0.00    +0.000 C 
ATOM      5  C   UNL     1      -6.925  12.910   5.855  0.00  0.00    +0.000 C 
ATOM      6  C   UNL     1      -7.442  11.878   5.167  0.00  0.00    +0.000 C 
ATOM      7  H   UNL     1      -9.621  11.962   7.042  0.00  0.00    +0.000 HD
ATOM      8  H   UNL     1      -6.911  11.097   8.172  0.00  0.00    +0.000 HD
ATOM      9  H   UNL     1      -8.071  12.130   9.005  0.00  0.00    +0.000 HD
ATOM     10  H   UNL     1      -9.149  10.645   5.103  0.00  0.00    +0.000 HD
ATOM     11  H   UNL     1      -7.720   9.890   5.811  0.00  0.00    +0.000 HD
ATOM     12  H   UNL     1      -6.201  13.328   7.831  0.00  0.00    +0.000 HD
ATOM     13  H   UNL     1      -7.831  13.915   7.496  0.00  0.00    +0.000 HD
ATOM     14  H   UNL     1      -7.243  11.784   4.103  0.00  0.00    +0.000 HD
ENDROOT
BRANCH   5  15
ATOM     15  C   UNL     1      -6.094  13.969   5.193  0.00  0.00    +0.000 C 
ATOM     16  H   UNL     1      -5.973  14.828   5.861  0.00  0.00    +0.000 HD
ATOM     17  H   UNL     1      -6.550  14.330   4.264  0.00  0.00    +0.000 HD
ATOM     18  H   UNL     1      -5.102  13.576   4.946  0.00  0.00    +0.000 HD
ENDBRANCH   5  15
BRANCH   1  19
ATOM     19  C   UNL     1      -9.446   9.986   7.873  0.00  0.00    +0.000 C 
BRANCH  19  20
ATOM     20  C   UNL     1      -8.512   8.780   7.785  0.00  0.00    +0.000 C 
ATOM     21  H   UNL     1      -7.702   8.945   7.065  0.00  0.00    +0.000 HD
ATOM     22  H   UNL     1      -9.064   7.886   7.472  0.00  0.00    +0.000 HD
ATOM     23  H   UNL     1      -8.079   8.525   8.757  0.00  0.00    +0.000 HD
ENDBRANCH  19  20
BRANCH  19  24
ATOM     24  C   UNL     1     -10.813   9.650   7.279  0.00  0.00    +0.000 C 
ATOM     25  H   UNL     1     -11.600  10.326   7.631  0.00  0.00    +0.000 HD
ATOM     26  H   UNL     1     -10.794   9.650   6.184  0.00  0.00    +0.000 HD
ATOM     27  H   UNL     1     -11.136   8.653   7.603  0.00  0.00    +0.000 HD
ENDBRANCH  19  24
BRANCH  19  28
ATOM     28  O   UNL     1      -9.645  10.307   9.250  0.00  0.00    +0.000 OA
ATOM     29  H   UNL     1      -8.779  10.279   9.694  0.00  0.00    +0.000 HD
ENDBRANCH  19  28
ENDBRANCH   1  19
TORSDOF 5
ENDMDL
MODEL 6
REMARK VINA RESULT:    -4.709     25.199     26.509
REMARK INTER + INTRA:          -5.730
REMARK INTER:                  -5.567
REMARK INTRA:                  -0.163
REMARK UNBOUND:                -0.196
REMARK  Name = 17100
REMARK  5 active torsions:
REMARK  status: ('A' for Active; 'I' for Inactive)
REMARK    1  A    between atoms: O_1  and  C_3
REMARK    2  A    between atoms: C_2  and  C_3
REMARK    3  A    between atoms: C_3  and  C_9
REMARK    4  A    between atoms: C_3  and  C_10
REMARK    5  A    between atoms: C_7  and  C_11
REMARK                            x       y       z     vdW  Elec       q    Type
REMARK                         _______ _______ _______ _____ _____    ______ ____
ROOT
ATOM      1  C   UNL     1     -20.396  -3.114   4.586  0.00  0.00    +0.000 C 
ATOM      2  C   UNL     1     -20.980  -1.728   4.288  0.00  0.00    +0.000 C 
ATOM      3  C   UNL     1     -21.073  -3.720   5.825  0.00  0.00    +0.000 C 
ATOM      4  C   UNL     1     -20.788  -0.780   5.476  0.00  0.00    +0.000 C 
ATOM      5  C   UNL     1     -21.085  -1.413   6.812  0.00  0.00    +0.000 C 
ATOM      6  C   UNL     1     -21.226  -2.743   6.953  0.00  0.00    +0.000 C 
ATOM      7  H   UNL     1     -19.327  -2.984   4.808  0.00  0.00    +0.000 HD
ATOM      8  H   UNL     1     -22.050  -1.806   4.061  0.00  0.00    +0.000 HD
ATOM      9  H   UNL     1     -20.502  -1.255   3.424  0.00  0.00    +0.000 HD
ATOM     10  H   UNL     1     -20.472  -4.558   6.197  0.00  0.00    +0.000 HD
ATOM     11  H   UNL     1     -22.069  -4.115   5.594  0.00  0.00    +0.000 HD
ATOM     12  H   UNL     1     -21.432   0.095   5.327  0.00  0.00    +0.000 HD
ATOM     13  H   UNL     1     -19.751  -0.418   5.488  0.00  0.00    +0.000 HD
ATOM     14  H   UNL     1     -21.461  -3.161   7.929  0.00  0.00    +0.000 HD
ENDROOT
BRANCH   5  15
ATOM     15  C   UNL     1     -21.212  -0.474   7.975  0.00  0.00    +0.000 C 
ATOM     16  H   UNL     1     -21.342   0.554   7.620  0.00  0.00    +0.000 HD
ATOM     17  H   UNL     1     -20.327  -0.494   8.621  0.00  0.00    +0.000 HD
ATOM     18  H   UNL     1     -22.079  -0.743   8.588  0.00  0.00    +0.000 HD
ENDBRANCH   5  15
BRANCH   1  19
ATOM     19  C   UNL     1     -20.539  -4.042   3.382  0.00  0.00    +0.000 C 
BRANCH  19  20
ATOM     20  C   UNL     1     -19.323  -4.960   3.252  0.00  0.00    +0.000 C 
ATOM     21  H   UNL     1     -18.949  -4.994   2.224  0.00  0.00    +0.000 HD
ATOM     22  H   UNL     1     -19.578  -5.982   3.554  0.00  0.00    +0.000 HD
ATOM     23  H   UNL     1     -18.509  -4.657   3.919  0.00  0.00    +0.000 HD
ENDBRANCH  19  20
BRANCH  19  24
ATOM     24  C   UNL     1     -20.740  -3.235   2.100  0.00  0.00    +0.000 C 
ATOM     25  H   UNL     1     -20.360  -2.211   2.187  0.00  0.00    +0.000 HD
ATOM     26  H   UNL     1     -20.281  -3.722   1.234  0.00  0.00    +0.000 HD
ATOM     27  H   UNL     1     -21.809  -3.118   1.886  0.00  0.00    +0.000 HD
ENDBRANCH  19  24
BRANCH  19  28
ATOM     28  O   UNL     1     -21.701  -4.851   3.565  0.00  0.00    +0.000 OA
ATOM     29  H   UNL     1     -21.467  -5.769   3.341  0.00  0.00    +0.000 HD
ENDBRANCH  19  28
ENDBRANCH   1  19
TORSDOF 5
ENDMDL
MODEL 7
REMARK VINA RESULT:    -4.639     26.466     27.483
REMARK INTER + INTRA:          -5.649
REMARK INTER:                  -5.447
REMARK INTRA:                  -0.202
REMARK UNBOUND:                -0.196
REMARK  Name = 17100
REMARK  5 active torsions:
REMARK  status: ('A' for Active; 'I' for Inactive)
REMARK    1  A    between atoms: O_1  and  C_3
REMARK    2  A    between atoms: C_2  and  C_3
REMARK    3  A    between atoms: C_3  and  C_9
REMARK    4  A    between atoms: C_3  and  C_10
REMARK    5  A    between atoms: C_7  and  C_11
REMARK                            x       y       z     vdW  Elec       q    Type
REMARK                         _______ _______ _______ _____ _____    ______ ____
ROOT
ATOM      1  C   UNL     1      14.995  -3.559   6.611  0.00  0.00    +0.000 C 
ATOM      2  C   UNL     1      13.534  -3.741   6.183  0.00  0.00    +0.000 C 
ATOM      3  C   UNL     1      15.210  -4.127   8.022  0.00  0.00    +0.000 C 
ATOM      4  C   UNL     1      12.582  -3.037   7.156  0.00  0.00    +0.000 C 
ATOM      5  C   UNL     1      12.938  -3.240   8.608  0.00  0.00    +0.000 C 
ATOM      6  C   UNL     1      14.124  -3.747   8.984  0.00  0.00    +0.000 C 
ATOM      7  H   UNL     1      15.201  -2.479   6.640  0.00  0.00    +0.000 HD
ATOM      8  H   UNL     1      13.279  -4.807   6.142  0.00  0.00    +0.000 HD
ATOM      9  H   UNL     1      13.339  -3.324   5.191  0.00  0.00    +0.000 HD
ATOM     10  H   UNL     1      16.155  -3.747   8.428  0.00  0.00    +0.000 HD
ATOM     11  H   UNL     1      15.278  -5.222   8.016  0.00  0.00    +0.000 HD
ATOM     12  H   UNL     1      11.565  -3.400   6.967  0.00  0.00    +0.000 HD
ATOM     13  H   UNL     1      12.582  -1.959   6.948  0.00  0.00    +0.000 HD
ATOM     14  H   UNL     1      14.336  -3.899  10.040  0.00  0.00    +0.000 HD
ENDROOT
BRANCH   5  15
ATOM     15  C   UNL     1      11.891  -2.841   9.606  0.00  0.00    +0.000 C 
ATOM     16  H   UNL     1      11.066  -3.560   9.598  0.00  0.00    +0.000 HD
ATOM     17  H   UNL     1      11.473  -1.851   9.393  0.00  0.00    +0.000 HD
ATOM     18  H   UNL     1      12.319  -2.812  10.614  0.00  0.00    +0.000 HD
ENDBRANCH   5  15
BRANCH   1  19
ATOM     19  C   UNL     1      15.946  -4.215   5.612  0.00  0.00    +0.000 C 
BRANCH  19  20
ATOM     20  C   UNL     1      15.387  -5.550   5.121  0.00  0.00    +0.000 C 
ATOM     21  H   UNL     1      15.638  -6.370   5.802  0.00  0.00    +0.000 HD
ATOM     22  H   UNL     1      15.791  -5.797   4.132  0.00  0.00    +0.000 HD
ATOM     23  H   UNL     1      14.301  -5.515   4.988  0.00  0.00    +0.000 HD
ENDBRANCH  19  20
BRANCH  19  24
ATOM     24  C   UNL     1      17.329  -4.409   6.233  0.00  0.00    +0.000 C 
ATOM     25  H   UNL     1      18.121  -3.928   5.648  0.00  0.00    +0.000 HD
ATOM     26  H   UNL     1      17.368  -4.048   7.265  0.00  0.00    +0.000 HD
ATOM     27  H   UNL     1      17.597  -5.473   6.244  0.00  0.00    +0.000 HD
ENDBRANCH  19  24
BRANCH  19  28
ATOM     28  O   UNL     1      16.098  -3.345   4.489  0.00  0.00    +0.000 OA
ATOM     29  H   UNL     1      15.630  -3.743   3.735  0.00  0.00    +0.000 HD
ENDBRANCH  19  28
ENDBRANCH   1  19
TORSDOF 5
ENDMDL
MODEL 8
REMARK VINA RESULT:    -4.634     32.473     33.978
REMARK INTER + INTRA:          -5.643
REMARK INTER:                  -5.447
REMARK INTRA:                  -0.196
REMARK UNBOUND:                -0.196
REMARK  Name = 17100
REMARK  5 active torsions:
REMARK  status: ('A' for Active; 'I' for Inactive)
REMARK    1  A    between atoms: O_1  and  C_3
REMARK    2  A    between atoms: C_2  and  C_3
REMARK    3  A    between atoms: C_3  and  C_9
REMARK    4  A    between atoms: C_3  and  C_10
REMARK    5  A    between atoms: C_7  and  C_11
REMARK                            x       y       z     vdW  Elec       q    Type
REMARK                         _______ _______ _______ _____ _____    ______ ____
ROOT
ATOM      1  C   UNL     1      -9.441 -11.347  16.374  0.00  0.00    +0.000 C 
ATOM      2  C   UNL     1     -10.178 -10.235  15.619  0.00  0.00    +0.000 C 
ATOM      3  C   UNL     1     -10.178 -12.683  16.203  0.00  0.00    +0.000 C 
ATOM      4  C   UNL     1     -11.615 -10.080  16.126  0.00  0.00    +0.000 C 
ATOM      5  C   UNL     1     -12.325 -11.393  16.346  0.00  0.00    +0.000 C 
ATOM      6  C   UNL     1     -11.665 -12.564  16.364  0.00  0.00    +0.000 C 
ATOM      7  H   UNL     1      -9.448 -11.085  17.442  0.00  0.00    +0.000 HD
ATOM      8  H   UNL     1     -10.199 -10.453  14.544  0.00  0.00    +0.000 HD
ATOM      9  H   UNL     1      -9.692  -9.261  15.740  0.00  0.00    +0.000 HD
ATOM     10  H   UNL     1      -9.824 -13.395  16.958  0.00  0.00    +0.000 HD
ATOM     11  H   UNL     1      -9.988 -13.133  15.221  0.00  0.00    +0.000 HD
ATOM     12  H   UNL     1     -12.173  -9.472  15.404  0.00  0.00    +0.000 HD
ATOM     13  H   UNL     1     -11.608  -9.528  17.075  0.00  0.00    +0.000 HD
ATOM     14  H   UNL     1     -12.214 -13.491  16.505  0.00  0.00    +0.000 HD
ENDROOT
BRANCH   5  15
ATOM     15  C   UNL     1     -13.810 -11.315  16.546  0.00  0.00    +0.000 C 
ATOM     16  H   UNL     1     -14.053 -11.380  17.612  0.00  0.00    +0.000 HD
ATOM     17  H   UNL     1     -14.339 -12.126  16.034  0.00  0.00    +0.000 HD
ATOM     18  H   UNL     1     -14.197 -10.367  16.158  0.00  0.00    +0.000 HD
ENDBRANCH   5  15
BRANCH   1  19
ATOM     19  C   UNL     1      -7.992 -11.463  15.906  0.00  0.00    +0.000 C 
BRANCH  19  20
ATOM     20  C   UNL     1      -7.921 -11.650  14.390  0.00  0.00    +0.000 C 
ATOM     21  H   UNL     1      -8.291 -12.635  14.085  0.00  0.00    +0.000 HD
ATOM     22  H   UNL     1      -6.888 -11.554  14.038  0.00  0.00    +0.000 HD
ATOM     23  H   UNL     1      -8.482 -10.877  13.855  0.00  0.00    +0.000 HD
ENDBRANCH  19  20
BRANCH  19  24
ATOM     24  C   UNL     1      -7.286 -12.614  16.621  0.00  0.00    +0.000 C 
ATOM     25  H   UNL     1      -6.222 -12.674  16.369  0.00  0.00    +0.000 HD
ATOM     26  H   UNL     1      -7.400 -12.552  17.708  0.00  0.00    +0.000 HD
ATOM     27  H   UNL     1      -7.703 -13.577  16.300  0.00  0.00    +0.000 HD
ENDBRANCH  19  24
BRANCH  19  28
ATOM     28  O   UNL     1      -7.304 -10.259  16.248  0.00  0.00    +0.000 OA
ATOM     29  H   UNL     1      -7.951  -9.533  16.250  0.00  0.00    +0.000 HD
ENDBRANCH  19  28
ENDBRANCH   1  19
TORSDOF 5
ENDMDL
MODEL 9
REMARK VINA RESULT:    -4.603      8.431      8.791
REMARK INTER + INTRA:          -5.606
REMARK INTER:                  -5.449
REMARK INTRA:                  -0.157
REMARK UNBOUND:                -0.196
REMARK  Name = 17100
REMARK  5 active torsions:
REMARK  status: ('A' for Active; 'I' for Inactive)
REMARK    1  A    between atoms: O_1  and  C_3
REMARK    2  A    between atoms: C_2  and  C_3
REMARK    3  A    between atoms: C_3  and  C_9
REMARK    4  A    between atoms: C_3  and  C_10
REMARK    5  A    between atoms: C_7  and  C_11
REMARK                            x       y       z     vdW  Elec       q    Type
REMARK                         _______ _______ _______ _____ _____    ______ ____
ROOT
ATOM      1  C   UNL     1      -1.651  -0.205 -12.001  0.00  0.00    +0.000 C 
ATOM      2  C   UNL     1      -2.846  -0.837 -12.725  0.00  0.00    +0.000 C 
ATOM      3  C   UNL     1      -1.654  -0.610 -10.519  0.00  0.00    +0.000 C 
ATOM      4  C   UNL     1      -4.171  -0.401 -12.090  0.00  0.00    +0.000 C 
ATOM      5  C   UNL     1      -4.155  -0.414 -10.582  0.00  0.00    +0.000 C 
ATOM      6  C   UNL     1      -3.011  -0.524  -9.884  0.00  0.00    +0.000 C 
ATOM      7  H   UNL     1      -1.767   0.887 -12.058  0.00  0.00    +0.000 HD
ATOM      8  H   UNL     1      -2.777  -1.931 -12.692  0.00  0.00    +0.000 HD
ATOM      9  H   UNL     1      -2.889  -0.549 -13.780  0.00  0.00    +0.000 HD
ATOM     10  H   UNL     1      -0.987   0.054  -9.957  0.00  0.00    +0.000 HD
ATOM     11  H   UNL     1      -1.287  -1.634 -10.374  0.00  0.00    +0.000 HD
ATOM     12  H   UNL     1      -4.964  -1.061 -12.461  0.00  0.00    +0.000 HD
ATOM     13  H   UNL     1      -4.416   0.616 -12.424  0.00  0.00    +0.000 HD
ATOM     14  H   UNL     1      -3.042  -0.552  -8.798  0.00  0.00    +0.000 HD
ENDROOT
BRANCH   5  15
ATOM     15  C   UNL     1      -5.489  -0.296  -9.906  0.00  0.00    +0.000 C 
ATOM     16  H   UNL     1      -6.292  -0.549 -10.606  0.00  0.00    +0.000 HD
ATOM     17  H   UNL     1      -5.676   0.718  -9.536  0.00  0.00    +0.000 HD
ATOM     18  H   UNL     1      -5.544  -0.978  -9.051  0.00  0.00    +0.000 HD
ENDBRANCH   5  15
BRANCH   1  19
ATOM     19  C   UNL     1      -0.334  -0.596 -12.667  0.00  0.00    +0.000 C 
BRANCH  19  20
ATOM     20  C   UNL     1       0.771   0.401 -12.319  0.00  0.00    +0.000 C 
ATOM     21  H   UNL     1       0.408   1.434 -12.345  0.00  0.00    +0.000 HD
ATOM     22  H   UNL     1       1.603   0.317 -13.027  0.00  0.00    +0.000 HD
ATOM     23  H   UNL     1       1.209   0.201 -11.335  0.00  0.00    +0.000 HD
ENDBRANCH  19  20
BRANCH  19  24
ATOM     24  C   UNL     1      -0.506  -0.699 -14.182  0.00  0.00    +0.000 C 
ATOM     25  H   UNL     1       0.369  -0.330 -14.727  0.00  0.00    +0.000 HD
ATOM     26  H   UNL     1      -0.731  -1.722 -14.499  0.00  0.00    +0.000 HD
ATOM     27  H   UNL     1      -1.333  -0.060 -14.516  0.00  0.00    +0.000 HD
ENDBRANCH  19  24
BRANCH  19  28
ATOM     28  O   UNL     1       0.052  -1.887 -12.191  0.00  0.00    +0.000 OA
ATOM     29  H   UNL     1       0.998  -2.008 -12.385  0.00  0.00    +0.000 HD
ENDBRANCH  19  28
ENDBRANCH   1  19
TORSDOF 5
ENDMDL
MODEL 10
REMARK VINA RESULT:    -4.432     17.445     19.108
REMARK INTER + INTRA:          -5.405
REMARK INTER:                  -5.197
REMARK INTRA:                  -0.208
REMARK UNBOUND:                -0.196
REMARK  Name = 17100
REMARK  5 active torsions:
REMARK  status: ('A' for Active; 'I' for Inactive)
REMARK    1  A    between atoms: O_1  and  C_3
REMARK    2  A    between atoms: C_2  and  C_3
REMARK    3  A    between atoms: C_3  and  C_9
REMARK    4  A    between atoms: C_3  and  C_10
REMARK    5  A    between atoms: C_7  and  C_11
REMARK                            x       y       z     vdW  Elec       q    Type
REMARK                         _______ _______ _______ _____ _____    ______ ____
ROOT
ATOM      1  C   UNL     1      -8.237  11.971   6.617  0.00  0.00    +0.000 C 
ATOM      2  C   UNL     1      -8.446  10.453   6.586  0.00  0.00    +0.000 C 
ATOM      3  C   UNL     1      -7.294  12.353   7.768  0.00  0.00    +0.000 C 
ATOM      4  C   UNL     1      -9.038   9.948   7.906  0.00  0.00    +0.000 C 
ATOM      5  C   UNL     1      -8.403  10.561   9.129  0.00  0.00    +0.000 C 
ATOM      6  C   UNL     1      -7.605  11.640   9.051  0.00  0.00    +0.000 C 
ATOM      7  H   UNL     1      -9.215  12.437   6.806  0.00  0.00    +0.000 HD
ATOM      8  H   UNL     1      -7.494   9.940   6.402  0.00  0.00    +0.000 HD
ATOM      9  H   UNL     1      -9.134  10.146   5.792  0.00  0.00    +0.000 HD
ATOM     10  H   UNL     1      -7.373  13.429   7.964  0.00  0.00    +0.000 HD
ATOM     11  H   UNL     1      -6.245  12.146   7.522  0.00  0.00    +0.000 HD
ATOM     12  H   UNL     1      -8.931   8.857   7.938  0.00  0.00    +0.000 HD
ATOM     13  H   UNL     1     -10.113  10.166   7.928  0.00  0.00    +0.000 HD
ATOM     14  H   UNL     1      -7.149  12.041   9.952  0.00  0.00    +0.000 HD
ENDROOT
BRANCH   5  15
ATOM     15  C   UNL     1      -8.717   9.899  10.438  0.00  0.00    +0.000 C 
ATOM     16  H   UNL     1      -7.809   9.808  11.044  0.00  0.00    +0.000 HD
ATOM     17  H   UNL     1      -9.130   8.893  10.303  0.00  0.00    +0.000 HD
ATOM     18  H   UNL     1      -9.451  10.488  10.997  0.00  0.00    +0.000 HD
ENDBRANCH   5  15
BRANCH   1  19
ATOM     19  C   UNL     1      -7.699  12.481   5.283  0.00  0.00    +0.000 C 
BRANCH  19  20
ATOM     20  C   UNL     1      -7.311  11.317   4.370  0.00  0.00    +0.000 C 
ATOM     21  H   UNL     1      -6.587  11.624   3.607  0.00  0.00    +0.000 HD
ATOM     22  H   UNL     1      -8.193  10.918   3.857  0.00  0.00    +0.000 HD
ATOM     23  H   UNL     1      -6.900  10.473   4.934  0.00  0.00    +0.000 HD
ENDBRANCH  19  20
BRANCH  19  24
ATOM     24  C   UNL     1      -6.506  13.410   5.503  0.00  0.00    +0.000 C 
ATOM     25  H   UNL     1      -6.792  14.350   5.985  0.00  0.00    +0.000 HD
ATOM     26  H   UNL     1      -5.713  12.927   6.084  0.00  0.00    +0.000 HD
ATOM     27  H   UNL     1      -6.073  13.710   4.540  0.00  0.00    +0.000 HD
ENDBRANCH  19  24
BRANCH  19  28
ATOM     28  O   UNL     1      -8.722  13.241   4.639  0.00  0.00    +0.000 OA
ATOM     29  H   UNL     1      -8.982  13.962   5.237  0.00  0.00    +0.000 HD
ENDBRANCH  19  28
ENDBRANCH   1  19
TORSDOF 5
ENDMDL
