MODEL 1
REMARK VINA RESULT:    -4.362      0.000      0.000
REMARK INTER + INTRA:          -4.829
REMARK INTER:                  -4.792
REMARK INTRA:                  -0.037
REMARK UNBOUND:                -0.085
REMARK  Name = 12756
REMARK  2 active torsions:
REMARK  status: ('A' for Active; 'I' for Inactive)
REMARK    1  A    between atoms: C_3  and  C_6
REMARK    2  A    between atoms: C_6  and  C_8
REMARK                            x       y       z     vdW  Elec       q    Type
REMARK                         _______ _______ _______ _____ _____    ______ ____
ROOT
ATOM      1  O   UNL     1       3.371  10.055   2.229  0.00  0.00    +0.000 OA
ATOM      2  O   UNL     1       2.975  11.728   0.709  0.00  0.00    +0.000 OA
ATOM      3  C   UNL     1       3.963   8.749   2.172  0.00  0.00    +0.000 C 
ATOM      4  C   UNL     1       4.931   8.825   1.013  0.00  0.00    +0.000 C 
ATOM      5  C   UNL     1       4.215   9.750   0.059  0.00  0.00    +0.000 C 
ATOM      6  C   UNL     1       3.463  10.646   0.997  0.00  0.00    +0.000 C 
ATOM      7  H   UNL     1       3.163   8.028   1.965  0.00  0.00    +0.000 HD
ATOM      8  H   UNL     1       5.158   7.847   0.578  0.00  0.00    +0.000 HD
ATOM      9  H   UNL     1       5.878   9.286   1.323  0.00  0.00    +0.000 HD
ATOM     10  H   UNL     1       4.918  10.320  -0.553  0.00  0.00    +0.000 HD
ATOM     11  H   UNL     1       3.501   9.213  -0.571  0.00  0.00    +0.000 HD
ENDROOT
BRANCH   3  12
ATOM     12  C   UNL     1       4.635   8.431   3.495  0.00  0.00    +0.000 C 
ATOM     13  H   UNL     1       5.546   9.031   3.605  0.00  0.00    +0.000 HD
ATOM     14  H   UNL     1       3.968   8.683   4.329  0.00  0.00    +0.000 HD
BRANCH  12  15
ATOM     15  C   UNL     1       4.993   6.958   3.605  0.00  0.00    +0.000 C 
ATOM     16  H   UNL     1       5.769   6.681   2.884  0.00  0.00    +0.000 HD
ATOM     17  H   UNL     1       5.353   6.714   4.609  0.00  0.00    +0.000 HD
ATOM     18  H   UNL     1       4.112   6.340   3.402  0.00  0.00    +0.000 HD
ENDBRANCH  12  15
ENDBRANCH   3  12
TORSDOF 2
ENDMDL
MODEL 2
REMARK VINA RESULT:    -4.135      1.843      3.257
REMARK INTER + INTRA:          -4.583
REMARK INTER:                  -4.531
REMARK INTRA:                  -0.052
REMARK UNBOUND:                -0.085
REMARK  Name = 12756
REMARK  2 active torsions:
REMARK  status: ('A' for Active; 'I' for Inactive)
REMARK    1  A    between atoms: C_3  and  C_6
REMARK    2  A    between atoms: C_6  and  C_8
REMARK                            x       y       z     vdW  Elec       q    Type
REMARK                         _______ _______ _______ _____ _____    ______ ____
ROOT
ATOM      1  O   UNL     1       4.942  11.140   0.188  0.00  0.00    +0.000 OA
ATOM      2  O   UNL     1       2.807  11.809   0.695  0.00  0.00    +0.000 OA
ATOM      3  C   UNL     1       5.788  10.051   0.585  0.00  0.00    +0.000 C 
ATOM      4  C   UNL     1       4.826   8.947   0.963  0.00  0.00    +0.000 C 
ATOM      5  C   UNL     1       3.672   9.717   1.558  0.00  0.00    +0.000 C 
ATOM      6  C   UNL     1       3.714  10.996   0.776  0.00  0.00    +0.000 C 
ATOM      7  H   UNL     1       6.366  10.378   1.458  0.00  0.00    +0.000 HD
ATOM      8  H   UNL     1       5.260   8.216   1.652  0.00  0.00    +0.000 HD
ATOM      9  H   UNL     1       4.480   8.407   0.072  0.00  0.00    +0.000 HD
ATOM     10  H   UNL     1       2.723   9.196   1.413  0.00  0.00    +0.000 HD
ATOM     11  H   UNL     1       3.834   9.939   2.617  0.00  0.00    +0.000 HD
ENDROOT
BRANCH   3  12
ATOM     12  C   UNL     1       6.714   9.676  -0.556  0.00  0.00    +0.000 C 
ATOM     13  H   UNL     1       7.549   9.076  -0.176  0.00  0.00    +0.000 HD
ATOM     14  H   UNL     1       6.178   9.069  -1.296  0.00  0.00    +0.000 HD
BRANCH  12  15
ATOM     15  C   UNL     1       7.264  10.905  -1.261  0.00  0.00    +0.000 C 
ATOM     16  H   UNL     1       6.768  11.818  -0.918  0.00  0.00    +0.000 HD
ATOM     17  H   UNL     1       8.340  11.011  -1.085  0.00  0.00    +0.000 HD
ATOM     18  H   UNL     1       7.105  10.822  -2.341  0.00  0.00    +0.000 HD
ENDBRANCH  12  15
ENDBRANCH   3  12
TORSDOF 2
ENDMDL
MODEL 3
REMARK VINA RESULT:    -4.128      2.188      3.502
REMARK INTER + INTRA:          -4.575
REMARK INTER:                  -4.542
REMARK INTRA:                  -0.034
REMARK UNBOUND:                -0.085
REMARK  Name = 12756
REMARK  2 active torsions:
REMARK  status: ('A' for Active; 'I' for Inactive)
REMARK    1  A    between atoms: C_3  and  C_6
REMARK    2  A    between atoms: C_6  and  C_8
REMARK                            x       y       z     vdW  Elec       q    Type
REMARK                         _______ _______ _______ _____ _____    ______ ____
ROOT
ATOM      1  O   UNL     1       5.094   9.611   1.234  0.00  0.00    +0.000 OA
ATOM      2  O   UNL     1       3.133   9.670   2.423  0.00  0.00    +0.000 OA
ATOM      3  C   UNL     1       5.619  10.318   0.102  0.00  0.00    +0.000 C 
ATOM      4  C   UNL     1       4.910  11.653   0.132  0.00  0.00    +0.000 C 
ATOM      5  C   UNL     1       3.546  11.280   0.660  0.00  0.00    +0.000 C 
ATOM      6  C   UNL     1       3.865  10.120   1.555  0.00  0.00    +0.000 C 
ATOM      7  H   UNL     1       5.349   9.754  -0.800  0.00  0.00    +0.000 HD
ATOM      8  H   UNL     1       4.876  12.144  -0.845  0.00  0.00    +0.000 HD
ATOM      9  H   UNL     1       5.396  12.339   0.837  0.00  0.00    +0.000 HD
ATOM     10  H   UNL     1       3.093  12.100   1.222  0.00  0.00    +0.000 HD
ATOM     11  H   UNL     1       2.879  10.942  -0.138  0.00  0.00    +0.000 HD
ENDROOT
BRANCH   3  12
ATOM     12  C   UNL     1       7.126  10.436   0.222  0.00  0.00    +0.000 C 
ATOM     13  H   UNL     1       7.384  11.286   0.865  0.00  0.00    +0.000 HD
ATOM     14  H   UNL     1       7.542   9.532   0.683  0.00  0.00    +0.000 HD
BRANCH  12  15
ATOM     15  C   UNL     1       7.787  10.621  -1.134  0.00  0.00    +0.000 C 
ATOM     16  H   UNL     1       7.370  11.482  -1.667  0.00  0.00    +0.000 HD
ATOM     17  H   UNL     1       8.866  10.771  -1.030  0.00  0.00    +0.000 HD
ATOM     18  H   UNL     1       7.627   9.734  -1.755  0.00  0.00    +0.000 HD
ENDBRANCH  12  15
ENDBRANCH   3  12
TORSDOF 2
ENDMDL
MODEL 4
REMARK VINA RESULT:    -4.119     13.449     13.914
REMARK INTER + INTRA:          -4.565
REMARK INTER:                  -4.538
REMARK INTRA:                  -0.027
REMARK UNBOUND:                -0.085
REMARK  Name = 12756
REMARK  2 active torsions:
REMARK  status: ('A' for Active; 'I' for Inactive)
REMARK    1  A    between atoms: C_3  and  C_6
REMARK    2  A    between atoms: C_6  and  C_8
REMARK                            x       y       z     vdW  Elec       q    Type
REMARK                         _______ _______ _______ _____ _____    ______ ____
ROOT
ATOM      1  O   UNL     1      -2.557   8.754  -9.711  0.00  0.00    +0.000 OA
ATOM      2  O   UNL     1      -1.011  10.179 -10.627  0.00  0.00    +0.000 OA
ATOM      3  C   UNL     1      -3.189   7.534 -10.126  0.00  0.00    +0.000 C 
ATOM      4  C   UNL     1      -2.196   6.903 -11.077  0.00  0.00    +0.000 C 
ATOM      5  C   UNL     1      -1.584   8.109 -11.748  0.00  0.00    +0.000 C 
ATOM      6  C   UNL     1      -1.647   9.137 -10.659  0.00  0.00    +0.000 C 
ATOM      7  H   UNL     1      -4.115   7.799 -10.651  0.00  0.00    +0.000 HD
ATOM      8  H   UNL     1      -2.660   6.205 -11.781  0.00  0.00    +0.000 HD
ATOM      9  H   UNL     1      -1.418   6.360 -10.526  0.00  0.00    +0.000 HD
ATOM     10  H   UNL     1      -0.552   7.919 -12.052  0.00  0.00    +0.000 HD
ATOM     11  H   UNL     1      -2.182   8.450 -12.597  0.00  0.00    +0.000 HD
ENDROOT
BRANCH   3  12
ATOM     12  C   UNL     1      -3.492   6.672  -8.916  0.00  0.00    +0.000 C 
ATOM     13  H   UNL     1      -2.870   5.769  -8.935  0.00  0.00    +0.000 HD
ATOM     14  H   UNL     1      -3.256   7.218  -7.993  0.00  0.00    +0.000 HD
BRANCH  12  15
ATOM     15  C   UNL     1      -4.955   6.267  -8.865  0.00  0.00    +0.000 C 
ATOM     16  H   UNL     1      -5.529   6.924  -8.204  0.00  0.00    +0.000 HD
ATOM     17  H   UNL     1      -5.408   6.301  -9.861  0.00  0.00    +0.000 HD
ATOM     18  H   UNL     1      -5.051   5.245  -8.485  0.00  0.00    +0.000 HD
ENDBRANCH  12  15
ENDBRANCH   3  12
TORSDOF 2
ENDMDL
MODEL 5
REMARK VINA RESULT:    -4.077      1.659      2.131
REMARK INTER + INTRA:          -4.520
REMARK INTER:                  -4.458
REMARK INTRA:                  -0.062
REMARK UNBOUND:                -0.085
REMARK  Name = 12756
REMARK  2 active torsions:
REMARK  status: ('A' for Active; 'I' for Inactive)
REMARK    1  A    between atoms: C_3  and  C_6
REMARK    2  A    between atoms: C_6  and  C_8
REMARK                            x       y       z     vdW  Elec       q    Type
REMARK                         _______ _______ _______ _____ _____    ______ ____
ROOT
ATOM      1  O   UNL     1       4.756   9.581   1.265  0.00  0.00    +0.000 OA
ATOM      2  O   UNL     1       3.206  11.266   1.413  0.00  0.00    +0.000 OA
ATOM      3  C   UNL     1       5.756   9.200   0.309  0.00  0.00    +0.000 C 
ATOM      4  C   UNL     1       6.123  10.492  -0.386  0.00  0.00    +0.000 C 
ATOM      5  C   UNL     1       4.806  11.229  -0.407  0.00  0.00    +0.000 C 
ATOM      6  C   UNL     1       4.153  10.738   0.851  0.00  0.00    +0.000 C 
ATOM      7  H   UNL     1       5.295   8.497  -0.395  0.00  0.00    +0.000 HD
ATOM      8  H   UNL     1       6.548  10.338  -1.382  0.00  0.00    +0.000 HD
ATOM      9  H   UNL     1       6.848  11.063   0.207  0.00  0.00    +0.000 HD
ATOM     10  H   UNL     1       4.950  12.312  -0.380  0.00  0.00    +0.000 HD
ATOM     11  H   UNL     1       4.191  10.941  -1.264  0.00  0.00    +0.000 HD
ENDROOT
BRANCH   3  12
ATOM     12  C   UNL     1       6.927   8.548   1.020  0.00  0.00    +0.000 C 
ATOM     13  H   UNL     1       7.378   7.785   0.374  0.00  0.00    +0.000 HD
ATOM     14  H   UNL     1       7.699   9.295   1.243  0.00  0.00    +0.000 HD
BRANCH  12  15
ATOM     15  C   UNL     1       6.502   7.903   2.329  0.00  0.00    +0.000 C 
ATOM     16  H   UNL     1       6.664   8.575   3.177  0.00  0.00    +0.000 HD
ATOM     17  H   UNL     1       5.443   7.628   2.307  0.00  0.00    +0.000 HD
ATOM     18  H   UNL     1       7.084   6.993   2.507  0.00  0.00    +0.000 HD
ENDBRANCH  12  15
ENDBRANCH   3  12
TORSDOF 2
ENDMDL
MODEL 6
REMARK VINA RESULT:    -4.060     12.940     14.229
REMARK INTER + INTRA:          -4.501
REMARK INTER:                  -4.429
REMARK INTRA:                  -0.072
REMARK UNBOUND:                -0.085
REMARK  Name = 12756
REMARK  2 active torsions:
REMARK  status: ('A' for Active; 'I' for Inactive)
REMARK    1  A    between atoms: C_3  and  C_6
REMARK    2  A    between atoms: C_6  and  C_8
REMARK                            x       y       z     vdW  Elec       q    Type
REMARK                         _______ _______ _______ _____ _____    ______ ____
ROOT
ATOM      1  O   UNL     1      -1.808   8.479 -11.302  0.00  0.00    +0.000 OA
ATOM      2  O   UNL     1      -0.887  10.525 -10.821  0.00  0.00    +0.000 OA
ATOM      3  C   UNL     1      -2.493   7.469 -10.547  0.00  0.00    +0.000 C 
ATOM      4  C   UNL     1      -3.134   8.224  -9.404  0.00  0.00    +0.000 C 
ATOM      5  C   UNL     1      -2.118   9.306  -9.126  0.00  0.00    +0.000 C 
ATOM      6  C   UNL     1      -1.535   9.545 -10.487  0.00  0.00    +0.000 C 
ATOM      7  H   UNL     1      -1.742   6.763 -10.174  0.00  0.00    +0.000 HD
ATOM      8  H   UNL     1      -3.342   7.593  -8.536  0.00  0.00    +0.000 HD
ATOM      9  H   UNL     1      -4.077   8.687  -9.721  0.00  0.00    +0.000 HD
ATOM     10  H   UNL     1      -2.589  10.210  -8.734  0.00  0.00    +0.000 HD
ATOM     11  H   UNL     1      -1.327   8.959  -8.455  0.00  0.00    +0.000 HD
ENDROOT
BRANCH   3  12
ATOM     12  C   UNL     1      -3.497   6.757 -11.433  0.00  0.00    +0.000 C 
ATOM     13  H   UNL     1      -3.578   7.275 -12.396  0.00  0.00    +0.000 HD
ATOM     14  H   UNL     1      -3.165   5.731 -11.635  0.00  0.00    +0.000 HD
BRANCH  12  15
ATOM     15  C   UNL     1      -4.871   6.690 -10.787  0.00  0.00    +0.000 C 
ATOM     16  H   UNL     1      -4.799   6.481  -9.716  0.00  0.00    +0.000 HD
ATOM     17  H   UNL     1      -5.414   7.631 -10.919  0.00  0.00    +0.000 HD
ATOM     18  H   UNL     1      -5.464   5.891 -11.245  0.00  0.00    +0.000 HD
ENDBRANCH  12  15
ENDBRANCH   3  12
TORSDOF 2
ENDMDL
MODEL 7
REMARK VINA RESULT:    -4.035      2.628      4.175
REMARK INTER + INTRA:          -4.474
REMARK INTER:                  -4.377
REMARK INTRA:                  -0.097
REMARK UNBOUND:                -0.085
REMARK  Name = 12756
REMARK  2 active torsions:
REMARK  status: ('A' for Active; 'I' for Inactive)
REMARK    1  A    between atoms: C_3  and  C_6
REMARK    2  A    between atoms: C_6  and  C_8
REMARK                            x       y       z     vdW  Elec       q    Type
REMARK                         _______ _______ _______ _____ _____    ______ ____
ROOT
ATOM      1  O   UNL     1       5.026   9.891   0.853  0.00  0.00    +0.000 OA
ATOM      2  O   UNL     1       6.485   8.122   0.914  0.00  0.00    +0.000 OA
ATOM      3  C   UNL     1       5.040  11.202   0.269  0.00  0.00    +0.000 C 
ATOM      4  C   UNL     1       5.965  11.074  -0.920  0.00  0.00    +0.000 C 
ATOM      5  C   UNL     1       6.987  10.079  -0.424  0.00  0.00    +0.000 C 
ATOM      6  C   UNL     1       6.171   9.228   0.502  0.00  0.00    +0.000 C 
ATOM      7  H   UNL     1       5.455  11.894   1.013  0.00  0.00    +0.000 HD
ATOM      8  H   UNL     1       6.404  12.027  -1.227  0.00  0.00    +0.000 HD
ATOM      9  H   UNL     1       5.436  10.650  -1.783  0.00  0.00    +0.000 HD
ATOM     10  H   UNL     1       7.402   9.486  -1.243  0.00  0.00    +0.000 HD
ATOM     11  H   UNL     1       7.785  10.564   0.145  0.00  0.00    +0.000 HD
ENDROOT
BRANCH   3  12
ATOM     12  C   UNL     1       3.629  11.612  -0.109  0.00  0.00    +0.000 C 
ATOM     13  H   UNL     1       2.911  11.167   0.591  0.00  0.00    +0.000 HD
ATOM     14  H   UNL     1       3.522  12.702  -0.047  0.00  0.00    +0.000 HD
BRANCH  12  15
ATOM     15  C   UNL     1       3.278  11.182  -1.523  0.00  0.00    +0.000 C 
ATOM     16  H   UNL     1       2.195  11.187  -1.685  0.00  0.00    +0.000 HD
ATOM     17  H   UNL     1       3.739  11.844  -2.262  0.00  0.00    +0.000 HD
ATOM     18  H   UNL     1       3.639  10.165  -1.708  0.00  0.00    +0.000 HD
ENDBRANCH  12  15
ENDBRANCH   3  12
TORSDOF 2
ENDMDL
MODEL 8
REMARK VINA RESULT:    -4.028     13.102     14.145
REMARK INTER + INTRA:          -4.466
REMARK INTER:                  -4.426
REMARK INTRA:                  -0.040
REMARK UNBOUND:                -0.085
REMARK  Name = 12756
REMARK  2 active torsions:
REMARK  status: ('A' for Active; 'I' for Inactive)
REMARK    1  A    between atoms: C_3  and  C_6
REMARK    2  A    between atoms: C_6  and  C_8
REMARK                            x       y       z     vdW  Elec       q    Type
REMARK                         _______ _______ _______ _____ _____    ______ ____
ROOT
ATOM      1  O   UNL     1      -3.310   7.546  -8.766  0.00  0.00    +0.000 OA
ATOM      2  O   UNL     1      -5.007   6.010  -8.615  0.00  0.00    +0.000 OA
ATOM      3  C   UNL     1      -2.538   8.107  -9.838  0.00  0.00    +0.000 C 
ATOM      4  C   UNL     1      -3.445   8.011 -11.044  0.00  0.00    +0.000 C 
ATOM      5  C   UNL     1      -4.191   6.724 -10.782  0.00  0.00    +0.000 C 
ATOM      6  C   UNL     1      -4.253   6.700  -9.284  0.00  0.00    +0.000 C 
ATOM      7  H   UNL     1      -1.646   7.482  -9.971  0.00  0.00    +0.000 HD
ATOM      8  H   UNL     1      -2.900   8.008 -11.992  0.00  0.00    +0.000 HD
ATOM      9  H   UNL     1      -4.158   8.844 -11.066  0.00  0.00    +0.000 HD
ATOM     10  H   UNL     1      -5.192   6.743 -11.219  0.00  0.00    +0.000 HD
ATOM     11  H   UNL     1      -3.632   5.851 -11.131  0.00  0.00    +0.000 HD
ENDROOT
BRANCH   3  12
ATOM     12  C   UNL     1      -2.143   9.531  -9.497  0.00  0.00    +0.000 C 
ATOM     13  H   UNL     1      -3.038  10.160  -9.427  0.00  0.00    +0.000 HD
ATOM     14  H   UNL     1      -1.639   9.562  -8.522  0.00  0.00    +0.000 HD
BRANCH  12  15
ATOM     15  C   UNL     1      -1.201  10.118 -10.535  0.00  0.00    +0.000 C 
ATOM     16  H   UNL     1      -1.417  11.176 -10.717  0.00  0.00    +0.000 HD
ATOM     17  H   UNL     1      -0.158  10.030 -10.215  0.00  0.00    +0.000 HD
ATOM     18  H   UNL     1      -1.309   9.586 -11.485  0.00  0.00    +0.000 HD
ENDBRANCH  12  15
ENDBRANCH   3  12
TORSDOF 2
ENDMDL
MODEL 9
REMARK VINA RESULT:    -3.948     26.952     28.550
REMARK INTER + INTRA:          -4.379
REMARK INTER:                  -4.318
REMARK INTRA:                  -0.061
REMARK UNBOUND:                -0.085
REMARK  Name = 12756
REMARK  2 active torsions:
REMARK  status: ('A' for Active; 'I' for Inactive)
REMARK    1  A    between atoms: C_3  and  C_6
REMARK    2  A    between atoms: C_6  and  C_8
REMARK                            x       y       z     vdW  Elec       q    Type
REMARK                         _______ _______ _______ _____ _____    ______ ____
ROOT
ATOM      1  O   UNL     1     -10.244 -10.924  15.225  0.00  0.00    +0.000 OA
ATOM      2  O   UNL     1      -9.094  -9.808  13.583  0.00  0.00    +0.000 OA
ATOM      3  C   UNL     1      -9.979 -12.062  16.058  0.00  0.00    +0.000 C 
ATOM      4  C   UNL     1      -8.471 -12.106  16.167  0.00  0.00    +0.000 C 
ATOM      5  C   UNL     1      -8.038 -11.613  14.807  0.00  0.00    +0.000 C 
ATOM      6  C   UNL     1      -9.144 -10.665  14.452  0.00  0.00    +0.000 C 
ATOM      7  H   UNL     1     -10.358 -12.951  15.539  0.00  0.00    +0.000 HD
ATOM      8  H   UNL     1      -8.087 -13.101  16.408  0.00  0.00    +0.000 HD
ATOM      9  H   UNL     1      -8.114 -11.409  16.935  0.00  0.00    +0.000 HD
ATOM     10  H   UNL     1      -7.076 -11.097  14.853  0.00  0.00    +0.000 HD
ATOM     11  H   UNL     1      -8.009 -12.421  14.071  0.00  0.00    +0.000 HD
ENDROOT
BRANCH   3  12
ATOM     12  C   UNL     1     -10.673 -11.893  17.396  0.00  0.00    +0.000 C 
ATOM     13  H   UNL     1     -10.795 -10.827  17.621  0.00  0.00    +0.000 HD
ATOM     14  H   UNL     1     -11.673 -12.344  17.365  0.00  0.00    +0.000 HD
BRANCH  12  15
ATOM     15  C   UNL     1      -9.893 -12.552  18.522  0.00  0.00    +0.000 C 
ATOM     16  H   UNL     1      -9.300 -11.820  19.079  0.00  0.00    +0.000 HD
ATOM     17  H   UNL     1     -10.565 -13.057  19.224  0.00  0.00    +0.000 HD
ATOM     18  H   UNL     1      -9.205 -13.301  18.116  0.00  0.00    +0.000 HD
ENDBRANCH  12  15
ENDBRANCH   3  12
TORSDOF 2
ENDMDL
MODEL 10
REMARK VINA RESULT:    -3.764     27.897     28.403
REMARK INTER + INTRA:          -4.180
REMARK INTER:                  -4.094
REMARK INTRA:                  -0.085
REMARK UNBOUND:                -0.085
REMARK  Name = 12756
REMARK  2 active torsions:
REMARK  status: ('A' for Active; 'I' for Inactive)
REMARK    1  A    between atoms: C_3  and  C_6
REMARK    2  A    between atoms: C_6  and  C_8
REMARK                            x       y       z     vdW  Elec       q    Type
REMARK                         _______ _______ _______ _____ _____    ______ ____
ROOT
ATOM      1  O   UNL     1     -21.998  -2.588   6.604  0.00  0.00    +0.000 OA
ATOM      2  O   UNL     1     -22.288  -2.531   8.879  0.00  0.00    +0.000 OA
ATOM      3  C   UNL     1     -21.435  -1.699   5.627  0.00  0.00    +0.000 C 
ATOM      4  C   UNL     1     -20.417  -0.890   6.399  0.00  0.00    +0.000 C 
ATOM      5  C   UNL     1     -21.069  -0.764   7.755  0.00  0.00    +0.000 C 
ATOM      6  C   UNL     1     -21.839  -2.047   7.851  0.00  0.00    +0.000 C 
ATOM      7  H   UNL     1     -22.243  -1.056   5.256  0.00  0.00    +0.000 HD
ATOM      8  H   UNL     1     -20.195   0.075   5.935  0.00  0.00    +0.000 HD
ATOM      9  H   UNL     1     -19.474  -1.442   6.500  0.00  0.00    +0.000 HD
ATOM     10  H   UNL     1     -20.326  -0.688   8.553  0.00  0.00    +0.000 HD
ATOM     11  H   UNL     1     -21.768   0.076   7.795  0.00  0.00    +0.000 HD
ENDROOT
BRANCH   3  12
ATOM     12  C   UNL     1     -20.830  -2.500   4.491  0.00  0.00    +0.000 C 
ATOM     13  H   UNL     1     -21.554  -2.592   3.672  0.00  0.00    +0.000 HD
ATOM     14  H   UNL     1     -19.944  -1.988   4.095  0.00  0.00    +0.000 HD
BRANCH  12  15
ATOM     15  C   UNL     1     -20.411  -3.889   4.942  0.00  0.00    +0.000 C 
ATOM     16  H   UNL     1     -19.935  -4.447   4.129  0.00  0.00    +0.000 HD
ATOM     17  H   UNL     1     -19.709  -3.837   5.780  0.00  0.00    +0.000 HD
ATOM     18  H   UNL     1     -21.286  -4.459   5.270  0.00  0.00    +0.000 HD
ENDBRANCH  12  15
ENDBRANCH   3  12
TORSDOF 2
ENDMDL
