MODEL 1
REMARK VINA RESULT:    -4.576      0.000      0.000
REMARK INTER + INTRA:          -6.784
REMARK INTER:                  -6.255
REMARK INTRA:                  -0.529
REMARK UNBOUND:                -0.470
REMARK  Name = 75427
REMARK  8 active torsions:
REMARK  status: ('A' for Active; 'I' for Inactive)
REMARK    1  A    between atoms: C_2  and  C_3
REMARK    2  A    between atoms: C_2  and  C_5
REMARK    3  A    between atoms: C_2  and  C_6
REMARK    4  A    between atoms: C_3  and  C_4
REMARK    5  A    between atoms: C_4  and  C_7
REMARK    6  A    between atoms: C_5  and  C_9
REMARK    7  A    between atoms: C_8  and  C_10
REMARK    8  A    between atoms: C_8  and  C_11
REMARK                            x       y       z     vdW  Elec       q    Type
REMARK                         _______ _______ _______ _____ _____    ______ ____
ROOT
ATOM      1  C   UNL     1     -20.553  -0.873   5.810  0.00  0.00    +0.000 C 
ATOM      2  H   UNL     1     -19.568  -0.789   5.334  0.00  0.00    +0.000 HD
ATOM      3  H   UNL     1     -21.081   0.068   5.599  0.00  0.00    +0.000 HD
ENDROOT
BRANCH   1   4
ATOM      4  C   UNL     1     -20.367  -1.028   7.323  0.00  0.00    +0.000 C 
ATOM      5  H   UNL     1     -20.245  -2.072   7.618  0.00  0.00    +0.000 HD
ATOM      6  H   UNL     1     -19.441  -0.526   7.630  0.00  0.00    +0.000 HD
BRANCH   4   7
ATOM      7  C   UNL     1     -21.512  -0.409   8.075  0.00  0.00    +0.000 C 
ATOM      8  C   UNL     1     -22.478  -1.042   8.768  0.00  0.00    +0.000 C 
ATOM      9  H   UNL     1     -21.549   0.679   8.035  0.00  0.00    +0.000 HD
BRANCH   8  10
ATOM     10  C   UNL     1     -23.599  -0.363   9.502  0.00  0.00    +0.000 C 
ATOM     11  H   UNL     1     -23.370   0.689   9.704  0.00  0.00    +0.000 HD
ATOM     12  H   UNL     1     -24.520  -0.398   8.911  0.00  0.00    +0.000 HD
ATOM     13  H   UNL     1     -23.779  -0.856  10.463  0.00  0.00    +0.000 HD
ENDBRANCH   8  10
BRANCH   8  14
ATOM     14  C   UNL     1     -22.503  -2.545   8.845  0.00  0.00    +0.000 C 
ATOM     15  H   UNL     1     -23.433  -2.876   9.321  0.00  0.00    +0.000 HD
ATOM     16  H   UNL     1     -21.665  -2.902   9.453  0.00  0.00    +0.000 HD
ATOM     17  H   UNL     1     -22.457  -3.051   7.879  0.00  0.00    +0.000 HD
ENDBRANCH   8  14
ENDBRANCH   4   7
ENDBRANCH   1   4
BRANCH   1  18
ATOM     18  C   UNL     1     -21.325  -2.042   5.160  0.00  0.00    +0.000 C 
ATOM     19  H   UNL     1     -22.391  -1.942   5.400  0.00  0.00    +0.000 HD
BRANCH  18  20
ATOM     20  C   UNL     1     -21.182  -2.032   3.633  0.00  0.00    +0.000 C 
ATOM     21  H   UNL     1     -22.124  -1.766   3.144  0.00  0.00    +0.000 HD
ATOM     22  H   UNL     1     -20.448  -1.293   3.303  0.00  0.00    +0.000 HD
ATOM     23  H   UNL     1     -20.874  -3.014   3.259  0.00  0.00    +0.000 HD
ENDBRANCH  18  20
BRANCH  18  24
ATOM     24  C   UNL     1     -20.817  -3.373   5.740  0.00  0.00    +0.000 C 
ATOM     25  H   UNL     1     -21.654  -3.947   6.156  0.00  0.00    +0.000 HD
ATOM     26  H   UNL     1     -20.110  -3.189   6.558  0.00  0.00    +0.000 HD
BRANCH  24  28
ATOM     27  O   UNL     1     -19.240  -5.066   4.986  0.00  0.00    +0.000 OA
ATOM     28  C   UNL     1     -20.133  -4.266   4.729  0.00  0.00    +0.000 C 
ATOM     29  H   UNL     1     -20.501  -4.160   3.693  0.00  0.00    +0.000 HD
ENDBRANCH  24  28
ENDBRANCH  18  24
ENDBRANCH   1  18
TORSDOF 8
ENDMDL
MODEL 2
REMARK VINA RESULT:    -4.565      2.449      5.470
REMARK INTER + INTRA:          -6.769
REMARK INTER:                  -6.380
REMARK INTRA:                  -0.389
REMARK UNBOUND:                -0.470
REMARK  Name = 75427
REMARK  8 active torsions:
REMARK  status: ('A' for Active; 'I' for Inactive)
REMARK    1  A    between atoms: C_2  and  C_3
REMARK    2  A    between atoms: C_2  and  C_5
REMARK    3  A    between atoms: C_2  and  C_6
REMARK    4  A    between atoms: C_3  and  C_4
REMARK    5  A    between atoms: C_4  and  C_7
REMARK    6  A    between atoms: C_5  and  C_9
REMARK    7  A    between atoms: C_8  and  C_10
REMARK    8  A    between atoms: C_8  and  C_11
REMARK                            x       y       z     vdW  Elec       q    Type
REMARK                         _______ _______ _______ _____ _____    ______ ____
ROOT
ATOM      1  C   UNL     1     -21.601  -2.341   4.885  0.00  0.00    +0.000 C 
ATOM      2  H   UNL     1     -22.606  -2.211   5.308  0.00  0.00    +0.000 HD
ATOM      3  H   UNL     1     -21.600  -1.811   3.922  0.00  0.00    +0.000 HD
ENDROOT
BRANCH   1   4
ATOM      4  C   UNL     1     -21.347  -3.833   4.647  0.00  0.00    +0.000 C 
ATOM      5  H   UNL     1     -21.006  -4.341   5.552  0.00  0.00    +0.000 HD
ATOM      6  H   UNL     1     -22.288  -4.325   4.372  0.00  0.00    +0.000 HD
BRANCH   4   7
ATOM      7  C   UNL     1     -20.359  -4.044   3.535  0.00  0.00    +0.000 C 
ATOM      8  C   UNL     1     -19.243  -4.797   3.557  0.00  0.00    +0.000 C 
ATOM      9  H   UNL     1     -20.589  -3.508   2.614  0.00  0.00    +0.000 HD
BRANCH   8  10
ATOM     10  C   UNL     1     -18.293  -4.967   2.405  0.00  0.00    +0.000 C 
ATOM     11  H   UNL     1     -18.584  -4.349   1.549  0.00  0.00    +0.000 HD
ATOM     12  H   UNL     1     -17.280  -4.678   2.699  0.00  0.00    +0.000 HD
ATOM     13  H   UNL     1     -18.279  -6.011   2.074  0.00  0.00    +0.000 HD
ENDBRANCH   8  10
BRANCH   8  14
ATOM     14  C   UNL     1     -18.851  -5.544   4.803  0.00  0.00    +0.000 C 
ATOM     15  H   UNL     1     -18.235  -4.902   5.442  0.00  0.00    +0.000 HD
ATOM     16  H   UNL     1     -18.260  -6.427   4.539  0.00  0.00    +0.000 HD
ATOM     17  H   UNL     1     -19.690  -5.873   5.420  0.00  0.00    +0.000 HD
ENDBRANCH   8  14
ENDBRANCH   4   7
ENDBRANCH   1   4
BRANCH   1  18
ATOM     18  C   UNL     1     -20.572  -1.681   5.827  0.00  0.00    +0.000 C 
ATOM     19  H   UNL     1     -19.597  -2.165   5.685  0.00  0.00    +0.000 HD
BRANCH  18  20
ATOM     20  C   UNL     1     -20.404  -0.187   5.522  0.00  0.00    +0.000 C 
ATOM     21  H   UNL     1     -19.408   0.170   5.799  0.00  0.00    +0.000 HD
ATOM     22  H   UNL     1     -20.515   0.019   4.454  0.00  0.00    +0.000 HD
ATOM     23  H   UNL     1     -21.141   0.413   6.066  0.00  0.00    +0.000 HD
ENDBRANCH  18  20
BRANCH  18  24
ATOM     24  C   UNL     1     -21.012  -1.887   7.286  0.00  0.00    +0.000 C 
ATOM     25  H   UNL     1     -20.193  -2.324   7.869  0.00  0.00    +0.000 HD
ATOM     26  H   UNL     1     -21.857  -2.584   7.337  0.00  0.00    +0.000 HD
BRANCH  24  28
ATOM     27  O   UNL     1     -22.264  -0.539   8.879  0.00  0.00    +0.000 OA
ATOM     28  C   UNL     1     -21.420  -0.613   7.993  0.00  0.00    +0.000 C 
ATOM     29  H   UNL     1     -20.889   0.295   7.657  0.00  0.00    +0.000 HD
ENDBRANCH  24  28
ENDBRANCH  18  24
ENDBRANCH   1  18
TORSDOF 8
ENDMDL
MODEL 3
REMARK VINA RESULT:    -4.482     26.960     28.731
REMARK INTER + INTRA:          -6.655
REMARK INTER:                  -5.953
REMARK INTRA:                  -0.702
REMARK UNBOUND:                -0.470
REMARK  Name = 75427
REMARK  8 active torsions:
REMARK  status: ('A' for Active; 'I' for Inactive)
REMARK    1  A    between atoms: C_2  and  C_3
REMARK    2  A    between atoms: C_2  and  C_5
REMARK    3  A    between atoms: C_2  and  C_6
REMARK    4  A    between atoms: C_3  and  C_4
REMARK    5  A    between atoms: C_4  and  C_7
REMARK    6  A    between atoms: C_5  and  C_9
REMARK    7  A    between atoms: C_8  and  C_10
REMARK    8  A    between atoms: C_8  and  C_11
REMARK                            x       y       z     vdW  Elec       q    Type
REMARK                         _______ _______ _______ _____ _____    ______ ____
ROOT
ATOM      1  C   UNL     1      -1.204  10.041 -10.540  0.00  0.00    +0.000 C 
ATOM      2  H   UNL     1      -0.640   9.287  -9.975  0.00  0.00    +0.000 HD
ATOM      3  H   UNL     1      -0.846  11.020 -10.192  0.00  0.00    +0.000 HD
ENDROOT
BRANCH   1   4
ATOM      4  C   UNL     1      -2.695   9.896 -10.216  0.00  0.00    +0.000 C 
ATOM      5  H   UNL     1      -3.108  10.803  -9.768  0.00  0.00    +0.000 HD
ATOM      6  H   UNL     1      -3.257   9.745 -11.146  0.00  0.00    +0.000 HD
BRANCH   4   7
ATOM      7  C   UNL     1      -2.941   8.718  -9.315  0.00  0.00    +0.000 C 
ATOM      8  C   UNL     1      -3.312   7.474  -9.672  0.00  0.00    +0.000 C 
ATOM      9  H   UNL     1      -2.806   8.921  -8.253  0.00  0.00    +0.000 HD
BRANCH   8  10
ATOM     10  C   UNL     1      -3.543   6.336  -8.719  0.00  0.00    +0.000 C 
ATOM     11  H   UNL     1      -4.417   5.741  -9.006  0.00  0.00    +0.000 HD
ATOM     12  H   UNL     1      -2.675   5.670  -8.700  0.00  0.00    +0.000 HD
ATOM     13  H   UNL     1      -3.717   6.716  -7.706  0.00  0.00    +0.000 HD
ENDBRANCH   8  10
BRANCH   8  14
ATOM     14  C   UNL     1      -3.542   7.131 -11.119  0.00  0.00    +0.000 C 
ATOM     15  H   UNL     1      -4.527   6.665 -11.238  0.00  0.00    +0.000 HD
ATOM     16  H   UNL     1      -2.785   6.416 -11.458  0.00  0.00    +0.000 HD
ATOM     17  H   UNL     1      -3.525   7.986 -11.798  0.00  0.00    +0.000 HD
ENDBRANCH   8  14
ENDBRANCH   4   7
ENDBRANCH   1   4
BRANCH   1  18
ATOM     18  C   UNL     1      -0.880   9.889 -12.041  0.00  0.00    +0.000 C 
ATOM     19  H   UNL     1      -0.151  10.657 -12.328  0.00  0.00    +0.000 HD
BRANCH  18  20
ATOM     20  C   UNL     1      -0.264   8.518 -12.349  0.00  0.00    +0.000 C 
ATOM     21  H   UNL     1       0.781   8.466 -12.028  0.00  0.00    +0.000 HD
ATOM     22  H   UNL     1      -0.786   7.716 -11.820  0.00  0.00    +0.000 HD
ATOM     23  H   UNL     1      -0.298   8.302 -13.422  0.00  0.00    +0.000 HD
ENDBRANCH  18  20
BRANCH  18  24
ATOM     24  C   UNL     1      -2.163  10.100 -12.863  0.00  0.00    +0.000 C 
ATOM     25  H   UNL     1      -2.890  10.681 -12.285  0.00  0.00    +0.000 HD
ATOM     26  H   UNL     1      -2.629   9.136 -13.100  0.00  0.00    +0.000 HD
BRANCH  24  28
ATOM     27  O   UNL     1      -0.930  11.459 -14.462  0.00  0.00    +0.000 OA
ATOM     28  C   UNL     1      -1.946  10.841 -14.165  0.00  0.00    +0.000 C 
ATOM     29  H   UNL     1      -2.791  10.790 -14.874  0.00  0.00    +0.000 HD
ENDBRANCH  24  28
ENDBRANCH  18  24
ENDBRANCH   1  18
TORSDOF 8
ENDMDL
MODEL 4
REMARK VINA RESULT:    -4.443     26.482     28.412
REMARK INTER + INTRA:          -6.601
REMARK INTER:                  -5.877
REMARK INTRA:                  -0.724
REMARK UNBOUND:                -0.470
REMARK  Name = 75427
REMARK  8 active torsions:
REMARK  status: ('A' for Active; 'I' for Inactive)
REMARK    1  A    between atoms: C_2  and  C_3
REMARK    2  A    between atoms: C_2  and  C_5
REMARK    3  A    between atoms: C_2  and  C_6
REMARK    4  A    between atoms: C_3  and  C_4
REMARK    5  A    between atoms: C_4  and  C_7
REMARK    6  A    between atoms: C_5  and  C_9
REMARK    7  A    between atoms: C_8  and  C_10
REMARK    8  A    between atoms: C_8  and  C_11
REMARK                            x       y       z     vdW  Elec       q    Type
REMARK                         _______ _______ _______ _____ _____    ______ ____
ROOT
ATOM      1  C   UNL     1      -3.000   8.810  -9.829  0.00  0.00    +0.000 C 
ATOM      2  H   UNL     1      -3.581   9.260 -10.645  0.00  0.00    +0.000 HD
ATOM      3  H   UNL     1      -3.547   9.032  -8.901  0.00  0.00    +0.000 HD
ENDROOT
BRANCH   1   4
ATOM      4  C   UNL     1      -1.617   9.467  -9.777  0.00  0.00    +0.000 C 
ATOM      5  H   UNL     1      -1.485  10.079  -8.882  0.00  0.00    +0.000 HD
ATOM      6  H   UNL     1      -0.845   8.689  -9.717  0.00  0.00    +0.000 HD
BRANCH   4   7
ATOM      7  C   UNL     1      -1.363  10.291 -11.008  0.00  0.00    +0.000 C 
ATOM      8  C   UNL     1      -0.810   9.889 -12.168  0.00  0.00    +0.000 C 
ATOM      9  H   UNL     1      -1.662  11.336 -10.926  0.00  0.00    +0.000 HD
BRANCH   8  10
ATOM     10  C   UNL     1      -0.583  10.767 -13.366  0.00  0.00    +0.000 C 
ATOM     11  H   UNL     1      -0.047  10.234 -14.159  0.00  0.00    +0.000 HD
ATOM     12  H   UNL     1      -1.539  11.108 -13.777  0.00  0.00    +0.000 HD
ATOM     13  H   UNL     1       0.013  11.643 -13.090  0.00  0.00    +0.000 HD
ENDBRANCH   8  10
BRANCH   8  14
ATOM     14  C   UNL     1      -0.350   8.466 -12.342  0.00  0.00    +0.000 C 
ATOM     15  H   UNL     1      -1.219   7.805 -12.437  0.00  0.00    +0.000 HD
ATOM     16  H   UNL     1       0.222   8.149 -11.464  0.00  0.00    +0.000 HD
ATOM     17  H   UNL     1       0.265   8.292 -13.226  0.00  0.00    +0.000 HD
ENDBRANCH   8  14
ENDBRANCH   4   7
ENDBRANCH   1   4
BRANCH   1  18
ATOM     18  C   UNL     1      -2.952   7.281 -10.033  0.00  0.00    +0.000 C 
ATOM     19  H   UNL     1      -1.904   6.966 -10.115  0.00  0.00    +0.000 HD
BRANCH  18  20
ATOM     20  C   UNL     1      -3.577   6.533  -8.849  0.00  0.00    +0.000 C 
ATOM     21  H   UNL     1      -3.445   5.451  -8.942  0.00  0.00    +0.000 HD
ATOM     22  H   UNL     1      -3.109   6.817  -7.902  0.00  0.00    +0.000 HD
ATOM     23  H   UNL     1      -4.651   6.736  -8.775  0.00  0.00    +0.000 HD
ENDBRANCH  18  20
BRANCH  18  24
ATOM     24  C   UNL     1      -3.674   6.918 -11.341  0.00  0.00    +0.000 C 
ATOM     25  H   UNL     1      -4.545   6.287 -11.129  0.00  0.00    +0.000 HD
ATOM     26  H   UNL     1      -3.009   6.345 -11.999  0.00  0.00    +0.000 HD
BRANCH  24  28
ATOM     27  O   UNL     1      -3.832   8.408 -13.259  0.00  0.00    +0.000 OA
ATOM     28  C   UNL     1      -4.177   8.114 -12.120  0.00  0.00    +0.000 C 
ATOM     29  H   UNL     1      -4.914   8.738 -11.586  0.00  0.00    +0.000 HD
ENDBRANCH  24  28
ENDBRANCH  18  24
ENDBRANCH   1  18
TORSDOF 8
ENDMDL
MODEL 5
REMARK VINA RESULT:    -4.360     27.246     29.101
REMARK INTER + INTRA:          -6.486
REMARK INTER:                  -6.042
REMARK INTRA:                  -0.444
REMARK UNBOUND:                -0.470
REMARK  Name = 75427
REMARK  8 active torsions:
REMARK  status: ('A' for Active; 'I' for Inactive)
REMARK    1  A    between atoms: C_2  and  C_3
REMARK    2  A    between atoms: C_2  and  C_5
REMARK    3  A    between atoms: C_2  and  C_6
REMARK    4  A    between atoms: C_3  and  C_4
REMARK    5  A    between atoms: C_4  and  C_7
REMARK    6  A    between atoms: C_5  and  C_9
REMARK    7  A    between atoms: C_8  and  C_10
REMARK    8  A    between atoms: C_8  and  C_11
REMARK                            x       y       z     vdW  Elec       q    Type
REMARK                         _______ _______ _______ _____ _____    ______ ____
ROOT
ATOM      1  C   UNL     1      -0.840   8.179 -12.635  0.00  0.00    +0.000 C 
ATOM      2  H   UNL     1      -0.595   8.241 -13.704  0.00  0.00    +0.000 HD
ATOM      3  H   UNL     1       0.118   8.166 -12.098  0.00  0.00    +0.000 HD
ENDROOT
BRANCH   1   4
ATOM      4  C   UNL     1      -1.593   6.871 -12.370  0.00  0.00    +0.000 C 
ATOM      5  H   UNL     1      -2.452   6.749 -13.035  0.00  0.00    +0.000 HD
ATOM      6  H   UNL     1      -0.934   6.020 -12.583  0.00  0.00    +0.000 HD
BRANCH   4   7
ATOM      7  C   UNL     1      -2.035   6.781 -10.936  0.00  0.00    +0.000 C 
ATOM      8  C   UNL     1      -3.293   6.805 -10.460  0.00  0.00    +0.000 C 
ATOM      9  H   UNL     1      -1.222   6.696 -10.214  0.00  0.00    +0.000 HD
BRANCH   8  10
ATOM     10  C   UNL     1      -3.669   6.710  -9.009  0.00  0.00    +0.000 C 
ATOM     11  H   UNL     1      -2.792   6.801  -8.359  0.00  0.00    +0.000 HD
ATOM     12  H   UNL     1      -4.368   7.509  -8.741  0.00  0.00    +0.000 HD
ATOM     13  H   UNL     1      -4.142   5.745  -8.799  0.00  0.00    +0.000 HD
ENDBRANCH   8  10
BRANCH   8  14
ATOM     14  C   UNL     1      -4.462   6.947 -11.398  0.00  0.00    +0.000 C 
ATOM     15  H   UNL     1      -4.381   6.211 -12.206  0.00  0.00    +0.000 HD
ATOM     16  H   UNL     1      -4.461   7.945 -11.848  0.00  0.00    +0.000 HD
ATOM     17  H   UNL     1      -5.438   6.786 -10.937  0.00  0.00    +0.000 HD
ENDBRANCH   8  14
ENDBRANCH   4   7
ENDBRANCH   1   4
BRANCH   1  18
ATOM     18  C   UNL     1      -1.630   9.440 -12.229  0.00  0.00    +0.000 C 
ATOM     19  H   UNL     1      -2.649   9.147 -11.945  0.00  0.00    +0.000 HD
BRANCH  18  20
ATOM     20  C   UNL     1      -0.990  10.145 -11.026  0.00  0.00    +0.000 C 
ATOM     21  H   UNL     1      -0.041  10.617 -11.296  0.00  0.00    +0.000 HD
ATOM     22  H   UNL     1      -1.630  10.943 -10.641  0.00  0.00    +0.000 HD
ATOM     23  H   UNL     1      -0.795   9.438 -10.213  0.00  0.00    +0.000 HD
ENDBRANCH  18  20
BRANCH  18  24
ATOM     24  C   UNL     1      -1.716  10.398 -13.431  0.00  0.00    +0.000 C 
ATOM     25  H   UNL     1      -2.343  11.261 -13.181  0.00  0.00    +0.000 HD
ATOM     26  H   UNL     1      -2.179   9.895 -14.288  0.00  0.00    +0.000 HD
BRANCH  24  28
ATOM     27  O   UNL     1       0.038  12.070 -13.643  0.00  0.00    +0.000 OA
ATOM     28  C   UNL     1      -0.378  10.943 -13.882  0.00  0.00    +0.000 C 
ATOM     29  H   UNL     1       0.239  10.234 -14.462  0.00  0.00    +0.000 HD
ENDBRANCH  24  28
ENDBRANCH  18  24
ENDBRANCH   1  18
TORSDOF 8
ENDMDL
MODEL 6
REMARK VINA RESULT:    -4.326     26.742     28.569
REMARK INTER + INTRA:          -6.439
REMARK INTER:                  -6.049
REMARK INTRA:                  -0.390
REMARK UNBOUND:                -0.470
REMARK  Name = 75427
REMARK  8 active torsions:
REMARK  status: ('A' for Active; 'I' for Inactive)
REMARK    1  A    between atoms: C_2  and  C_3
REMARK    2  A    between atoms: C_2  and  C_5
REMARK    3  A    between atoms: C_2  and  C_6
REMARK    4  A    between atoms: C_3  and  C_4
REMARK    5  A    between atoms: C_4  and  C_7
REMARK    6  A    between atoms: C_5  and  C_9
REMARK    7  A    between atoms: C_8  and  C_10
REMARK    8  A    between atoms: C_8  and  C_11
REMARK                            x       y       z     vdW  Elec       q    Type
REMARK                         _______ _______ _______ _____ _____    ______ ____
ROOT
ATOM      1  C   UNL     1      -1.826   6.879 -13.044  0.00  0.00    +0.000 C 
ATOM      2  H   UNL     1      -2.867   6.551 -13.160  0.00  0.00    +0.000 HD
ATOM      3  H   UNL     1      -1.199   6.064 -13.432  0.00  0.00    +0.000 HD
ENDROOT
BRANCH   1   4
ATOM      4  C   UNL     1      -1.531   7.086 -11.554  0.00  0.00    +0.000 C 
ATOM      5  H   UNL     1      -0.589   6.622 -11.253  0.00  0.00    +0.000 HD
ATOM      6  H   UNL     1      -1.408   8.158 -11.351  0.00  0.00    +0.000 HD
BRANCH   4   7
ATOM      7  C   UNL     1      -2.656   6.569 -10.702  0.00  0.00    +0.000 C 
ATOM      8  C   UNL     1      -3.227   7.168  -9.641  0.00  0.00    +0.000 C 
ATOM      9  H   UNL     1      -3.032   5.588 -10.992  0.00  0.00    +0.000 HD
BRANCH   8  10
ATOM     10  C   UNL     1      -4.353   6.596  -8.829  0.00  0.00    +0.000 C 
ATOM     11  H   UNL     1      -4.344   5.500  -8.843  0.00  0.00    +0.000 HD
ATOM     12  H   UNL     1      -4.276   6.918  -7.786  0.00  0.00    +0.000 HD
ATOM     13  H   UNL     1      -5.318   6.926  -9.229  0.00  0.00    +0.000 HD
ENDBRANCH   8  10
BRANCH   8  14
ATOM     14  C   UNL     1      -2.740   8.513  -9.171  0.00  0.00    +0.000 C 
ATOM     15  H   UNL     1      -3.547   9.036  -8.645  0.00  0.00    +0.000 HD
ATOM     16  H   UNL     1      -2.443   9.124 -10.029  0.00  0.00    +0.000 HD
ATOM     17  H   UNL     1      -1.899   8.475  -8.476  0.00  0.00    +0.000 HD
ENDBRANCH   8  14
ENDBRANCH   4   7
ENDBRANCH   1   4
BRANCH   1  18
ATOM     18  C   UNL     1      -1.599   8.143 -13.900  0.00  0.00    +0.000 C 
ATOM     19  H   UNL     1      -1.388   7.840 -14.933  0.00  0.00    +0.000 HD
BRANCH  18  20
ATOM     20  C   UNL     1      -2.841   9.043 -13.917  0.00  0.00    +0.000 C 
ATOM     21  H   UNL     1      -2.669   9.976 -13.371  0.00  0.00    +0.000 HD
ATOM     22  H   UNL     1      -3.113   9.332 -14.936  0.00  0.00    +0.000 HD
ATOM     23  H   UNL     1      -3.700   8.540 -13.461  0.00  0.00    +0.000 HD
ENDBRANCH  18  20
BRANCH  18  24
ATOM     24  C   UNL     1      -0.382   8.914 -13.360  0.00  0.00    +0.000 C 
ATOM     25  H   UNL     1       0.342   9.087 -14.164  0.00  0.00    +0.000 HD
ATOM     26  H   UNL     1       0.126   8.330 -12.583  0.00  0.00    +0.000 HD
BRANCH  24  28
ATOM     27  O   UNL     1      -0.778  10.521 -11.576  0.00  0.00    +0.000 OA
ATOM     28  C   UNL     1      -0.720  10.267 -12.774  0.00  0.00    +0.000 C 
ATOM     29  H   UNL     1      -0.917  11.059 -13.518  0.00  0.00    +0.000 HD
ENDBRANCH  24  28
ENDBRANCH  18  24
ENDBRANCH   1  18
TORSDOF 8
ENDMDL
MODEL 7
REMARK VINA RESULT:    -4.214     26.202     27.711
REMARK INTER + INTRA:          -6.285
REMARK INTER:                  -5.630
REMARK INTRA:                  -0.655
REMARK UNBOUND:                -0.470
REMARK  Name = 75427
REMARK  8 active torsions:
REMARK  status: ('A' for Active; 'I' for Inactive)
REMARK    1  A    between atoms: C_2  and  C_3
REMARK    2  A    between atoms: C_2  and  C_5
REMARK    3  A    between atoms: C_2  and  C_6
REMARK    4  A    between atoms: C_3  and  C_4
REMARK    5  A    between atoms: C_4  and  C_7
REMARK    6  A    between atoms: C_5  and  C_9
REMARK    7  A    between atoms: C_8  and  C_10
REMARK    8  A    between atoms: C_8  and  C_11
REMARK                            x       y       z     vdW  Elec       q    Type
REMARK                         _______ _______ _______ _____ _____    ______ ____
ROOT
ATOM      1  C   UNL     1      -4.507   6.811 -10.954  0.00  0.00    +0.000 C 
ATOM      2  H   UNL     1      -4.988   5.826 -10.897  0.00  0.00    +0.000 HD
ATOM      3  H   UNL     1      -5.166   7.508 -10.419  0.00  0.00    +0.000 HD
ENDROOT
BRANCH   1   4
ATOM      4  C   UNL     1      -4.402   7.232 -12.424  0.00  0.00    +0.000 C 
ATOM      5  H   UNL     1      -3.370   7.222 -12.782  0.00  0.00    +0.000 HD
ATOM      6  H   UNL     1      -4.938   6.508 -13.051  0.00  0.00    +0.000 HD
BRANCH   4   7
ATOM      7  C   UNL     1      -5.010   8.589 -12.643  0.00  0.00    +0.000 C 
ATOM      8  C   UNL     1      -4.392   9.709 -13.061  0.00  0.00    +0.000 C 
ATOM      9  H   UNL     1      -6.076   8.651 -12.424  0.00  0.00    +0.000 HD
BRANCH   8  10
ATOM     10  C   UNL     1      -5.060  11.040 -13.261  0.00  0.00    +0.000 C 
ATOM     11  H   UNL     1      -5.295  11.218 -14.316  0.00  0.00    +0.000 HD
ATOM     12  H   UNL     1      -5.996  11.088 -12.696  0.00  0.00    +0.000 HD
ATOM     13  H   UNL     1      -4.404  11.850 -12.924  0.00  0.00    +0.000 HD
ENDBRANCH   8  10
BRANCH   8  14
ATOM     14  C   UNL     1      -2.917   9.702 -13.358  0.00  0.00    +0.000 C 
ATOM     15  H   UNL     1      -2.351   9.612 -12.423  0.00  0.00    +0.000 HD
ATOM     16  H   UNL     1      -2.628  10.642 -13.840  0.00  0.00    +0.000 HD
ATOM     17  H   UNL     1      -2.584   8.880 -13.995  0.00  0.00    +0.000 HD
ENDBRANCH   8  14
ENDBRANCH   4   7
ENDBRANCH   1   4
BRANCH   1  18
ATOM     18  C   UNL     1      -3.145   6.746 -10.232  0.00  0.00    +0.000 C 
ATOM     19  H   UNL     1      -3.060   5.781  -9.717  0.00  0.00    +0.000 HD
BRANCH  18  20
ATOM     20  C   UNL     1      -1.976   6.858 -11.219  0.00  0.00    +0.000 C 
ATOM     21  H   UNL     1      -2.230   6.427 -12.192  0.00  0.00    +0.000 HD
ATOM     22  H   UNL     1      -1.709   7.901 -11.407  0.00  0.00    +0.000 HD
ATOM     23  H   UNL     1      -1.090   6.338 -10.841  0.00  0.00    +0.000 HD
ENDBRANCH  18  20
BRANCH  18  24
ATOM     24  C   UNL     1      -3.072   7.867  -9.181  0.00  0.00    +0.000 C 
ATOM     25  H   UNL     1      -2.382   7.586  -8.376  0.00  0.00    +0.000 HD
ATOM     26  H   UNL     1      -4.056   8.029  -8.725  0.00  0.00    +0.000 HD
BRANCH  24  28
ATOM     27  O   UNL     1      -1.511   9.712  -9.466  0.00  0.00    +0.000 OA
ATOM     28  C   UNL     1      -2.591   9.194  -9.727  0.00  0.00    +0.000 C 
ATOM     29  H   UNL     1      -3.296   9.696 -10.412  0.00  0.00    +0.000 HD
ENDBRANCH  24  28
ENDBRANCH  18  24
ENDBRANCH   1  18
TORSDOF 8
ENDMDL
MODEL 8
REMARK VINA RESULT:    -4.212     29.992     31.378
REMARK INTER + INTRA:          -6.283
REMARK INTER:                  -6.094
REMARK INTRA:                  -0.188
REMARK UNBOUND:                -0.470
REMARK  Name = 75427
REMARK  8 active torsions:
REMARK  status: ('A' for Active; 'I' for Inactive)
REMARK    1  A    between atoms: C_2  and  C_3
REMARK    2  A    between atoms: C_2  and  C_5
REMARK    3  A    between atoms: C_2  and  C_6
REMARK    4  A    between atoms: C_3  and  C_4
REMARK    5  A    between atoms: C_4  and  C_7
REMARK    6  A    between atoms: C_5  and  C_9
REMARK    7  A    between atoms: C_8  and  C_10
REMARK    8  A    between atoms: C_8  and  C_11
REMARK                            x       y       z     vdW  Elec       q    Type
REMARK                         _______ _______ _______ _____ _____    ______ ____
ROOT
ATOM      1  C   UNL     1       8.220   9.628   5.911  0.00  0.00    +0.000 C 
ATOM      2  H   UNL     1       8.247  10.508   5.255  0.00  0.00    +0.000 HD
ATOM      3  H   UNL     1       9.234   9.204   5.901  0.00  0.00    +0.000 HD
ENDROOT
BRANCH   1   4
ATOM      4  C   UNL     1       7.232   8.606   5.339  0.00  0.00    +0.000 C 
ATOM      5  H   UNL     1       7.433   7.594   5.697  0.00  0.00    +0.000 HD
ATOM      6  H   UNL     1       6.218   8.844   5.686  0.00  0.00    +0.000 HD
BRANCH   4   7
ATOM      7  C   UNL     1       7.237   8.632   3.836  0.00  0.00    +0.000 C 
ATOM      8  C   UNL     1       6.538   7.844   2.998  0.00  0.00    +0.000 C 
ATOM      9  H   UNL     1       7.896   9.379   3.395  0.00  0.00    +0.000 HD
BRANCH   8  10
ATOM     10  C   UNL     1       6.587   7.921   1.498  0.00  0.00    +0.000 C 
ATOM     11  H   UNL     1       7.568   8.255   1.144  0.00  0.00    +0.000 HD
ATOM     12  H   UNL     1       6.388   6.939   1.057  0.00  0.00    +0.000 HD
ATOM     13  H   UNL     1       5.839   8.630   1.128  0.00  0.00    +0.000 HD
ENDBRANCH   8  10
BRANCH   8  14
ATOM     14  C   UNL     1       5.628   6.773   3.537  0.00  0.00    +0.000 C 
ATOM     15  H   UNL     1       5.897   6.545   4.575  0.00  0.00    +0.000 HD
ATOM     16  H   UNL     1       5.739   5.857   2.949  0.00  0.00    +0.000 HD
ATOM     17  H   UNL     1       4.569   7.039   3.549  0.00  0.00    +0.000 HD
ENDBRANCH   8  14
ENDBRANCH   4   7
ENDBRANCH   1   4
BRANCH   1  18
ATOM     18  C   UNL     1       7.877  10.083   7.346  0.00  0.00    +0.000 C 
ATOM     19  H   UNL     1       6.824   9.852   7.551  0.00  0.00    +0.000 HD
BRANCH  18  20
ATOM     20  C   UNL     1       8.732   9.352   8.389  0.00  0.00    +0.000 C 
ATOM     21  H   UNL     1       9.099   8.395   8.008  0.00  0.00    +0.000 HD
ATOM     22  H   UNL     1       9.618   9.933   8.660  0.00  0.00    +0.000 HD
ATOM     23  H   UNL     1       8.159   9.155   9.301  0.00  0.00    +0.000 HD
ENDBRANCH  18  20
BRANCH  18  24
ATOM     24  C   UNL     1       8.073  11.605   7.458  0.00  0.00    +0.000 C 
ATOM     25  H   UNL     1       7.280  12.129   6.913  0.00  0.00    +0.000 HD
ATOM     26  H   UNL     1       9.028  11.902   7.009  0.00  0.00    +0.000 HD
BRANCH  24  28
ATOM     27  O   UNL     1       7.055  12.170   9.595  0.00  0.00    +0.000 OA
ATOM     28  C   UNL     1       8.048  12.126   8.879  0.00  0.00    +0.000 C 
ATOM     29  H   UNL     1       9.023  12.479   9.260  0.00  0.00    +0.000 HD
ENDBRANCH  24  28
ENDBRANCH  18  24
ENDBRANCH   1  18
TORSDOF 8
ENDMDL
MODEL 9
REMARK VINA RESULT:    -4.183     26.265     28.088
REMARK INTER + INTRA:          -6.242
REMARK INTER:                  -5.772
REMARK INTRA:                  -0.470
REMARK UNBOUND:                -0.470
REMARK  Name = 75427
REMARK  8 active torsions:
REMARK  status: ('A' for Active; 'I' for Inactive)
REMARK    1  A    between atoms: C_2  and  C_3
REMARK    2  A    between atoms: C_2  and  C_5
REMARK    3  A    between atoms: C_2  and  C_6
REMARK    4  A    between atoms: C_3  and  C_4
REMARK    5  A    between atoms: C_4  and  C_7
REMARK    6  A    between atoms: C_5  and  C_9
REMARK    7  A    between atoms: C_8  and  C_10
REMARK    8  A    between atoms: C_8  and  C_11
REMARK                            x       y       z     vdW  Elec       q    Type
REMARK                         _______ _______ _______ _____ _____    ______ ____
ROOT
ATOM      1  C   UNL     1      -1.644   6.841 -11.533  0.00  0.00    +0.000 C 
ATOM      2  H   UNL     1      -2.222   5.908 -11.548  0.00  0.00    +0.000 HD
ATOM      3  H   UNL     1      -0.660   6.588 -11.113  0.00  0.00    +0.000 HD
ENDROOT
BRANCH   1   4
ATOM      4  C   UNL     1      -2.346   7.851 -10.620  0.00  0.00    +0.000 C 
ATOM      5  H   UNL     1      -1.637   8.508 -10.111  0.00  0.00    +0.000 HD
ATOM      6  H   UNL     1      -2.978   8.513 -11.225  0.00  0.00    +0.000 HD
BRANCH   4   7
ATOM      7  C   UNL     1      -3.218   7.155  -9.612  0.00  0.00    +0.000 C 
ATOM      8  C   UNL     1      -4.448   6.642  -9.804  0.00  0.00    +0.000 C 
ATOM      9  H   UNL     1      -2.786   7.074  -8.615  0.00  0.00    +0.000 HD
BRANCH   8  10
ATOM     10  C   UNL     1      -5.270   5.955  -8.751  0.00  0.00    +0.000 C 
ATOM     11  H   UNL     1      -5.321   6.546  -7.830  0.00  0.00    +0.000 HD
ATOM     12  H   UNL     1      -6.293   5.798  -9.106  0.00  0.00    +0.000 HD
ATOM     13  H   UNL     1      -4.832   4.983  -8.499  0.00  0.00    +0.000 HD
ENDBRANCH   8  10
BRANCH   8  14
ATOM     14  C   UNL     1      -5.115   6.740 -11.149  0.00  0.00    +0.000 C 
ATOM     15  H   UNL     1      -5.670   7.683 -11.220  0.00  0.00    +0.000 HD
ATOM     16  H   UNL     1      -5.827   5.917 -11.274  0.00  0.00    +0.000 HD
ATOM     17  H   UNL     1      -4.430   6.725 -11.999  0.00  0.00    +0.000 HD
ENDBRANCH   8  14
ENDBRANCH   4   7
ENDBRANCH   1   4
BRANCH   1  18
ATOM     18  C   UNL     1      -1.462   7.340 -12.982  0.00  0.00    +0.000 C 
ATOM     19  H   UNL     1      -0.478   7.020 -13.349  0.00  0.00    +0.000 HD
BRANCH  18  20
ATOM     20  C   UNL     1      -2.527   6.756 -13.918  0.00  0.00    +0.000 C 
ATOM     21  H   UNL     1      -3.494   7.250 -13.784  0.00  0.00    +0.000 HD
ATOM     22  H   UNL     1      -2.257   6.894 -14.969  0.00  0.00    +0.000 HD
ATOM     23  H   UNL     1      -2.668   5.685 -13.737  0.00  0.00    +0.000 HD
ENDBRANCH  18  20
BRANCH  18  24
ATOM     24  C   UNL     1      -1.512   8.878 -13.001  0.00  0.00    +0.000 C 
ATOM     25  H   UNL     1      -1.290   9.275 -12.004  0.00  0.00    +0.000 HD
ATOM     26  H   UNL     1      -2.516   9.224 -13.274  0.00  0.00    +0.000 HD
BRANCH  24  28
ATOM     27  O   UNL     1       0.486   8.976 -14.386  0.00  0.00    +0.000 OA
ATOM     28  C   UNL     1      -0.527   9.515 -13.957  0.00  0.00    +0.000 C 
ATOM     29  H   UNL     1      -0.784  10.543 -14.269  0.00  0.00    +0.000 HD
ENDBRANCH  24  28
ENDBRANCH  18  24
ENDBRANCH   1  18
TORSDOF 8
ENDMDL
MODEL 10
REMARK VINA RESULT:    -4.116     16.448     18.048
REMARK INTER + INTRA:          -6.150
REMARK INTER:                  -5.885
REMARK INTRA:                  -0.265
REMARK UNBOUND:                -0.470
REMARK  Name = 75427
REMARK  8 active torsions:
REMARK  status: ('A' for Active; 'I' for Inactive)
REMARK    1  A    between atoms: C_2  and  C_3
REMARK    2  A    between atoms: C_2  and  C_5
REMARK    3  A    between atoms: C_2  and  C_6
REMARK    4  A    between atoms: C_3  and  C_4
REMARK    5  A    between atoms: C_4  and  C_7
REMARK    6  A    between atoms: C_5  and  C_9
REMARK    7  A    between atoms: C_8  and  C_10
REMARK    8  A    between atoms: C_8  and  C_11
REMARK                            x       y       z     vdW  Elec       q    Type
REMARK                         _______ _______ _______ _____ _____    ______ ____
ROOT
ATOM      1  C   UNL     1      -8.965  10.623   9.003  0.00  0.00    +0.000 C 
ATOM      2  H   UNL     1      -9.770  11.121   9.560  0.00  0.00    +0.000 HD
ATOM      3  H   UNL     1      -8.141  11.348   8.935  0.00  0.00    +0.000 HD
ENDROOT
BRANCH   1   4
ATOM      4  C   UNL     1      -9.465  10.283   7.596  0.00  0.00    +0.000 C 
ATOM      5  H   UNL     1      -9.861   9.266   7.534  0.00  0.00    +0.000 HD
ATOM      6  H   UNL     1     -10.305  10.941   7.337  0.00  0.00    +0.000 HD
BRANCH   4   7
ATOM      7  C   UNL     1      -8.380  10.476   6.574  0.00  0.00    +0.000 C 
ATOM      8  C   UNL     1      -8.425  11.229   5.459  0.00  0.00    +0.000 C 
ATOM      9  H   UNL     1      -7.462   9.925   6.775  0.00  0.00    +0.000 HD
BRANCH   8  10
ATOM     10  C   UNL     1      -7.300  11.381   4.474  0.00  0.00    +0.000 C 
ATOM     11  H   UNL     1      -7.619  11.127   3.457  0.00  0.00    +0.000 HD
ATOM     12  H   UNL     1      -6.936  12.413   4.464  0.00  0.00    +0.000 HD
ATOM     13  H   UNL     1      -6.470  10.718   4.739  0.00  0.00    +0.000 HD
ENDBRANCH   8  10
BRANCH   8  14
ATOM     14  C   UNL     1      -9.671  11.996   5.105  0.00  0.00    +0.000 C 
ATOM     15  H   UNL     1     -10.400  11.916   5.920  0.00  0.00    +0.000 HD
ATOM     16  H   UNL     1     -10.124  11.576   4.202  0.00  0.00    +0.000 HD
ATOM     17  H   UNL     1      -9.516  13.064   4.939  0.00  0.00    +0.000 HD
ENDBRANCH   8  14
ENDBRANCH   4   7
ENDBRANCH   1   4
BRANCH   1  18
ATOM     18  C   UNL     1      -8.489   9.392   9.804  0.00  0.00    +0.000 C 
ATOM     19  H   UNL     1      -8.697   8.486   9.222  0.00  0.00    +0.000 HD
BRANCH  18  20
ATOM     20  C   UNL     1      -6.980   9.442  10.074  0.00  0.00    +0.000 C 
ATOM     21  H   UNL     1      -6.548  10.396   9.758  0.00  0.00    +0.000 HD
ATOM     22  H   UNL     1      -6.760   9.345  11.141  0.00  0.00    +0.000 HD
ATOM     23  H   UNL     1      -6.456   8.642   9.540  0.00  0.00    +0.000 HD
ENDBRANCH  18  20
BRANCH  18  24
ATOM     24  C   UNL     1      -9.271   9.311  11.127  0.00  0.00    +0.000 C 
ATOM     25  H   UNL     1     -10.157   9.955  11.082  0.00  0.00    +0.000 HD
ATOM     26  H   UNL     1      -8.652   9.667  11.959  0.00  0.00    +0.000 HD
BRANCH  24  28
ATOM     27  O   UNL     1     -10.932   7.575  11.511  0.00  0.00    +0.000 OA
ATOM     28  C   UNL     1      -9.756   7.921  11.473  0.00  0.00    +0.000 C 
ATOM     29  H   UNL     1      -8.956   7.193  11.696  0.00  0.00    +0.000 HD
ENDBRANCH  24  28
ENDBRANCH  18  24
ENDBRANCH   1  18
TORSDOF 8
ENDMDL
