MODEL 1
REMARK VINA RESULT:    -5.137      0.000      0.000
REMARK INTER + INTRA:          -9.089
REMARK INTER:                  -7.975
REMARK INTRA:                  -1.114
REMARK UNBOUND:                -0.649
REMARK  Name = 8193
REMARK  12 active torsions:
REMARK  status: ('A' for Active; 'I' for Inactive)
REMARK    1  A    between atoms: O_1  and  C_12
REMARK    2  A    between atoms: C_2  and  C_3
REMARK    3  A    between atoms: C_2  and  C_4
REMARK    4  A    between atoms: C_3  and  C_5
REMARK    5  A    between atoms: C_4  and  C_6
REMARK    6  A    between atoms: C_5  and  C_7
REMARK    7  A    between atoms: C_6  and  C_8
REMARK    8  A    between atoms: C_7  and  C_9
REMARK    9  A    between atoms: C_8  and  C_10
REMARK   10  A    between atoms: C_9  and  C_11
REMARK   11  A    between atoms: C_10  and  C_12
REMARK   12  A    between atoms: C_11  and  C_13
REMARK                            x       y       z     vdW  Elec       q    Type
REMARK                         _______ _______ _______ _____ _____    ______ ____
ROOT
ATOM      1  C   UNL     1      -2.743  10.104 -10.207  0.00  0.00    +0.000 C 
ATOM      2  H   UNL     1      -3.069  11.147 -10.303  0.00  0.00    +0.000 HD
ATOM      3  H   UNL     1      -3.273   9.534 -10.981  0.00  0.00    +0.000 HD
ENDROOT
BRANCH   1   4
ATOM      4  C   UNL     1      -3.159   9.576  -8.829  0.00  0.00    +0.000 C 
ATOM      5  H   UNL     1      -4.236   9.747  -8.703  0.00  0.00    +0.000 HD
ATOM      6  H   UNL     1      -2.660  10.177  -8.057  0.00  0.00    +0.000 HD
BRANCH   4   7
ATOM      7  C   UNL     1      -2.858   8.098  -8.559  0.00  0.00    +0.000 C 
ATOM      8  H   UNL     1      -3.108   7.863  -7.517  0.00  0.00    +0.000 HD
ATOM      9  H   UNL     1      -1.780   7.932  -8.673  0.00  0.00    +0.000 HD
BRANCH   7  10
ATOM     10  C   UNL     1      -3.614   7.144  -9.489  0.00  0.00    +0.000 C 
ATOM     11  H   UNL     1      -4.484   7.664  -9.907  0.00  0.00    +0.000 HD
ATOM     12  H   UNL     1      -4.000   6.300  -8.904  0.00  0.00    +0.000 HD
BRANCH  10  13
ATOM     13  C   UNL     1      -2.755   6.612 -10.641  0.00  0.00    +0.000 C 
ATOM     14  H   UNL     1      -1.752   7.052 -10.576  0.00  0.00    +0.000 HD
ATOM     15  H   UNL     1      -2.632   5.529 -10.518  0.00  0.00    +0.000 HD
BRANCH  13  16
ATOM     16  C   UNL     1      -3.340   6.901 -12.023  0.00  0.00    +0.000 C 
ATOM     17  H   UNL     1      -3.071   6.095 -12.716  0.00  0.00    +0.000 HD
ATOM     18  H   UNL     1      -2.911   7.828 -12.421  0.00  0.00    +0.000 HD
BRANCH  16  19
ATOM     19  C   UNL     1      -4.855   7.036 -11.967  0.00  0.00    +0.000 C 
ATOM     20  H   UNL     1      -5.156   8.088 -12.003  0.00  0.00    +0.000 HD
ATOM     21  H   UNL     1      -5.313   6.522 -12.818  0.00  0.00    +0.000 HD
ATOM     22  H   UNL     1      -5.253   6.594 -11.048  0.00  0.00    +0.000 HD
ENDBRANCH  16  19
ENDBRANCH  13  16
ENDBRANCH  10  13
ENDBRANCH   7  10
ENDBRANCH   4   7
ENDBRANCH   1   4
BRANCH   1  23
ATOM     23  C   UNL     1      -1.237  10.014 -10.461  0.00  0.00    +0.000 C 
ATOM     24  H   UNL     1      -0.851   9.086 -10.020  0.00  0.00    +0.000 HD
ATOM     25  H   UNL     1      -0.736  10.842  -9.945  0.00  0.00    +0.000 HD
BRANCH  23  26
ATOM     26  C   UNL     1      -0.871  10.054 -11.948  0.00  0.00    +0.000 C 
ATOM     27  H   UNL     1      -1.775  10.251 -12.536  0.00  0.00    +0.000 HD
ATOM     28  H   UNL     1      -0.187  10.894 -12.125  0.00  0.00    +0.000 HD
BRANCH  26  29
ATOM     29  C   UNL     1      -0.217   8.762 -12.446  0.00  0.00    +0.000 C 
ATOM     30  H   UNL     1      -0.660   7.904 -11.927  0.00  0.00    +0.000 HD
ATOM     31  H   UNL     1       0.852   8.771 -12.202  0.00  0.00    +0.000 HD
BRANCH  29  32
ATOM     32  C   UNL     1      -0.397   8.598 -13.959  0.00  0.00    +0.000 C 
ATOM     33  H   UNL     1      -0.340   7.537 -14.233  0.00  0.00    +0.000 HD
ATOM     34  H   UNL     1      -1.398   8.931 -14.259  0.00  0.00    +0.000 HD
BRANCH  32  35
ATOM     35  C   UNL     1       0.648   9.376 -14.751  0.00  0.00    +0.000 C 
ATOM     36  H   UNL     1       0.222  10.303 -15.144  0.00  0.00    +0.000 HD
ATOM     37  H   UNL     1       1.506   9.622 -14.117  0.00  0.00    +0.000 HD
BRANCH  35  38
ATOM     38  O   UNL     1       1.109   8.593 -15.844  0.00  0.00    +0.000 OA
ATOM     39  H   UNL     1       1.940   8.174 -15.562  0.00  0.00    +0.000 HD
ENDBRANCH  35  38
ENDBRANCH  32  35
ENDBRANCH  29  32
ENDBRANCH  26  29
ENDBRANCH  23  26
ENDBRANCH   1  23
TORSDOF 12
ENDMDL
MODEL 2
REMARK VINA RESULT:    -4.861      1.416      2.255
REMARK INTER + INTRA:          -8.635
REMARK INTER:                  -7.117
REMARK INTRA:                  -1.517
REMARK UNBOUND:                -0.649
REMARK  Name = 8193
REMARK  12 active torsions:
REMARK  status: ('A' for Active; 'I' for Inactive)
REMARK    1  A    between atoms: O_1  and  C_12
REMARK    2  A    between atoms: C_2  and  C_3
REMARK    3  A    between atoms: C_2  and  C_4
REMARK    4  A    between atoms: C_3  and  C_5
REMARK    5  A    between atoms: C_4  and  C_6
REMARK    6  A    between atoms: C_5  and  C_7
REMARK    7  A    between atoms: C_6  and  C_8
REMARK    8  A    between atoms: C_7  and  C_9
REMARK    9  A    between atoms: C_8  and  C_10
REMARK   10  A    between atoms: C_9  and  C_11
REMARK   11  A    between atoms: C_10  and  C_12
REMARK   12  A    between atoms: C_11  and  C_13
REMARK                            x       y       z     vdW  Elec       q    Type
REMARK                         _______ _______ _______ _____ _____    ______ ____
ROOT
ATOM      1  C   UNL     1      -2.788   8.607  -8.831  0.00  0.00    +0.000 C 
ATOM      2  H   UNL     1      -1.815   8.295  -8.434  0.00  0.00    +0.000 HD
ATOM      3  H   UNL     1      -3.403   8.899  -7.971  0.00  0.00    +0.000 HD
ENDROOT
BRANCH   1   4
ATOM      4  C   UNL     1      -3.448   7.413  -9.532  0.00  0.00    +0.000 C 
ATOM      5  H   UNL     1      -4.399   7.747  -9.964  0.00  0.00    +0.000 HD
ATOM      6  H   UNL     1      -3.701   6.658  -8.776  0.00  0.00    +0.000 HD
BRANCH   4   7
ATOM      7  C   UNL     1      -2.617   6.738 -10.629  0.00  0.00    +0.000 C 
ATOM      8  H   UNL     1      -2.431   5.694 -10.350  0.00  0.00    +0.000 HD
ATOM      9  H   UNL     1      -1.639   7.231 -10.684  0.00  0.00    +0.000 HD
BRANCH   7  10
ATOM     10  C   UNL     1      -3.280   6.784 -12.008  0.00  0.00    +0.000 C 
ATOM     11  H   UNL     1      -3.703   5.798 -12.237  0.00  0.00    +0.000 HD
ATOM     12  H   UNL     1      -2.516   6.986 -12.769  0.00  0.00    +0.000 HD
BRANCH  10  13
ATOM     13  C   UNL     1      -4.391   7.835 -12.114  0.00  0.00    +0.000 C 
ATOM     14  H   UNL     1      -5.350   7.329 -12.281  0.00  0.00    +0.000 HD
ATOM     15  H   UNL     1      -4.474   8.358 -11.153  0.00  0.00    +0.000 HD
BRANCH  13  16
ATOM     16  C   UNL     1      -4.162   8.856 -13.228  0.00  0.00    +0.000 C 
ATOM     17  H   UNL     1      -4.716   8.557 -14.125  0.00  0.00    +0.000 HD
ATOM     18  H   UNL     1      -3.099   8.880 -13.495  0.00  0.00    +0.000 HD
BRANCH  16  19
ATOM     19  C   UNL     1      -4.601  10.249 -12.802  0.00  0.00    +0.000 C 
ATOM     20  H   UNL     1      -3.825  10.738 -12.204  0.00  0.00    +0.000 HD
ATOM     21  H   UNL     1      -4.794  10.871 -13.682  0.00  0.00    +0.000 HD
ATOM     22  H   UNL     1      -5.519  10.205 -12.207  0.00  0.00    +0.000 HD
ENDBRANCH  16  19
ENDBRANCH  13  16
ENDBRANCH  10  13
ENDBRANCH   7  10
ENDBRANCH   4   7
ENDBRANCH   1   4
BRANCH   1  23
ATOM     23  C   UNL     1      -2.601   9.819  -9.747  0.00  0.00    +0.000 C 
ATOM     24  H   UNL     1      -2.914  10.726  -9.215  0.00  0.00    +0.000 HD
ATOM     25  H   UNL     1      -3.263   9.717 -10.616  0.00  0.00    +0.000 HD
BRANCH  23  26
ATOM     26  C   UNL     1      -1.159   9.994 -10.232  0.00  0.00    +0.000 C 
ATOM     27  H   UNL     1      -0.730  10.889  -9.767  0.00  0.00    +0.000 HD
ATOM     28  H   UNL     1      -0.561   9.140  -9.889  0.00  0.00    +0.000 HD
BRANCH  26  29
ATOM     29  C   UNL     1      -1.041  10.109 -11.754  0.00  0.00    +0.000 C 
ATOM     30  H   UNL     1      -0.542  11.050 -12.013  0.00  0.00    +0.000 HD
ATOM     31  H   UNL     1      -2.042  10.139 -12.201  0.00  0.00    +0.000 HD
BRANCH  29  32
ATOM     32  C   UNL     1      -0.254   8.931 -12.339  0.00  0.00    +0.000 C 
ATOM     33  H   UNL     1       0.684   8.793 -11.787  0.00  0.00    +0.000 HD
ATOM     34  H   UNL     1      -0.817   7.998 -12.208  0.00  0.00    +0.000 HD
BRANCH  32  35
ATOM     35  C   UNL     1       0.059   9.124 -13.818  0.00  0.00    +0.000 C 
ATOM     36  H   UNL     1       1.083   9.487 -13.951  0.00  0.00    +0.000 HD
ATOM     37  H   UNL     1      -0.055   8.181 -14.362  0.00  0.00    +0.000 HD
BRANCH  35  38
ATOM     38  O   UNL     1      -0.833  10.077 -14.381  0.00  0.00    +0.000 OA
ATOM     39  H   UNL     1      -0.931   9.853 -15.322  0.00  0.00    +0.000 HD
ENDBRANCH  35  38
ENDBRANCH  32  35
ENDBRANCH  29  32
ENDBRANCH  26  29
ENDBRANCH  23  26
ENDBRANCH   1  23
TORSDOF 12
ENDMDL
MODEL 3
REMARK VINA RESULT:    -4.791     14.259     16.102
REMARK INTER + INTRA:          -8.521
REMARK INTER:                  -7.415
REMARK INTRA:                  -1.106
REMARK UNBOUND:                -0.649
REMARK  Name = 8193
REMARK  12 active torsions:
REMARK  status: ('A' for Active; 'I' for Inactive)
REMARK    1  A    between atoms: O_1  and  C_12
REMARK    2  A    between atoms: C_2  and  C_3
REMARK    3  A    between atoms: C_2  and  C_4
REMARK    4  A    between atoms: C_3  and  C_5
REMARK    5  A    between atoms: C_4  and  C_6
REMARK    6  A    between atoms: C_5  and  C_7
REMARK    7  A    between atoms: C_6  and  C_8
REMARK    8  A    between atoms: C_7  and  C_9
REMARK    9  A    between atoms: C_8  and  C_10
REMARK   10  A    between atoms: C_9  and  C_11
REMARK   11  A    between atoms: C_10  and  C_12
REMARK   12  A    between atoms: C_11  and  C_13
REMARK                            x       y       z     vdW  Elec       q    Type
REMARK                         _______ _______ _______ _____ _____    ______ ____
ROOT
ATOM      1  C   UNL     1       3.755   9.508   1.067  0.00  0.00    +0.000 C 
ATOM      2  H   UNL     1       4.801   9.199   0.944  0.00  0.00    +0.000 HD
ATOM      3  H   UNL     1       3.163   8.911   0.363  0.00  0.00    +0.000 HD
ENDROOT
BRANCH   1   4
ATOM      4  C   UNL     1       3.626  10.989   0.696  0.00  0.00    +0.000 C 
ATOM      5  H   UNL     1       3.220  11.530   1.560  0.00  0.00    +0.000 HD
ATOM      6  H   UNL     1       2.882  11.087  -0.106  0.00  0.00    +0.000 HD
BRANCH   4   7
ATOM      7  C   UNL     1       4.916  11.682   0.243  0.00  0.00    +0.000 C 
ATOM      8  H   UNL     1       5.532  11.909   1.122  0.00  0.00    +0.000 HD
ATOM      9  H   UNL     1       4.657  12.642  -0.219  0.00  0.00    +0.000 HD
BRANCH   7  10
ATOM     10  C   UNL     1       5.735  10.853  -0.750  0.00  0.00    +0.000 C 
ATOM     11  H   UNL     1       5.718  11.345  -1.730  0.00  0.00    +0.000 HD
ATOM     12  H   UNL     1       5.260   9.872  -0.879  0.00  0.00    +0.000 HD
BRANCH  10  13
ATOM     13  C   UNL     1       7.193  10.656  -0.320  0.00  0.00    +0.000 C 
ATOM     14  H   UNL     1       7.835  10.666  -1.210  0.00  0.00    +0.000 HD
ATOM     15  H   UNL     1       7.497  11.511   0.297  0.00  0.00    +0.000 HD
BRANCH  13  16
ATOM     16  C   UNL     1       7.432   9.361   0.456  0.00  0.00    +0.000 C 
ATOM     17  H   UNL     1       6.943   9.419   1.435  0.00  0.00    +0.000 HD
ATOM     18  H   UNL     1       8.505   9.230   0.637  0.00  0.00    +0.000 HD
BRANCH  16  19
ATOM     19  C   UNL     1       6.903   8.154  -0.304  0.00  0.00    +0.000 C 
ATOM     20  H   UNL     1       6.881   8.348  -1.381  0.00  0.00    +0.000 HD
ATOM     21  H   UNL     1       7.545   7.285  -0.128  0.00  0.00    +0.000 HD
ATOM     22  H   UNL     1       5.889   7.900   0.022  0.00  0.00    +0.000 HD
ENDBRANCH  16  19
ENDBRANCH  13  16
ENDBRANCH  10  13
ENDBRANCH   7  10
ENDBRANCH   4   7
ENDBRANCH   1   4
BRANCH   1  23
ATOM     23  C   UNL     1       3.297   9.199   2.494  0.00  0.00    +0.000 C 
ATOM     24  H   UNL     1       2.561   8.384   2.469  0.00  0.00    +0.000 HD
ATOM     25  H   UNL     1       2.782  10.077   2.903  0.00  0.00    +0.000 HD
BRANCH  23  26
ATOM     26  C   UNL     1       4.446   8.809   3.428  0.00  0.00    +0.000 C 
ATOM     27  H   UNL     1       5.144   9.651   3.511  0.00  0.00    +0.000 HD
ATOM     28  H   UNL     1       4.044   8.630   4.433  0.00  0.00    +0.000 HD
BRANCH  26  29
ATOM     29  C   UNL     1       5.208   7.564   2.965  0.00  0.00    +0.000 C 
ATOM     30  H   UNL     1       5.695   7.770   2.004  0.00  0.00    +0.000 HD
ATOM     31  H   UNL     1       4.504   6.740   2.802  0.00  0.00    +0.000 HD
BRANCH  29  32
ATOM     32  C   UNL     1       6.261   7.143   3.996  0.00  0.00    +0.000 C 
ATOM     33  H   UNL     1       5.842   6.393   4.678  0.00  0.00    +0.000 HD
ATOM     34  H   UNL     1       7.106   6.654   3.496  0.00  0.00    +0.000 HD
BRANCH  32  35
ATOM     35  C   UNL     1       6.775   8.325   4.809  0.00  0.00    +0.000 C 
ATOM     36  H   UNL     1       5.988   9.074   4.941  0.00  0.00    +0.000 HD
ATOM     37  H   UNL     1       7.117   7.995   5.795  0.00  0.00    +0.000 HD
BRANCH  35  38
ATOM     38  O   UNL     1       7.869   8.935   4.137  0.00  0.00    +0.000 OA
ATOM     39  H   UNL     1       8.623   8.920   4.751  0.00  0.00    +0.000 HD
ENDBRANCH  35  38
ENDBRANCH  32  35
ENDBRANCH  29  32
ENDBRANCH  26  29
ENDBRANCH  23  26
ENDBRANCH   1  23
TORSDOF 12
ENDMDL
MODEL 4
REMARK VINA RESULT:    -4.570     18.253     21.010
REMARK INTER + INTRA:          -8.158
REMARK INTER:                  -7.349
REMARK INTRA:                  -0.809
REMARK UNBOUND:                -0.649
REMARK  Name = 8193
REMARK  12 active torsions:
REMARK  status: ('A' for Active; 'I' for Inactive)
REMARK    1  A    between atoms: O_1  and  C_12
REMARK    2  A    between atoms: C_2  and  C_3
REMARK    3  A    between atoms: C_2  and  C_4
REMARK    4  A    between atoms: C_3  and  C_5
REMARK    5  A    between atoms: C_4  and  C_6
REMARK    6  A    between atoms: C_5  and  C_7
REMARK    7  A    between atoms: C_6  and  C_8
REMARK    8  A    between atoms: C_7  and  C_9
REMARK    9  A    between atoms: C_8  and  C_10
REMARK   10  A    between atoms: C_9  and  C_11
REMARK   11  A    between atoms: C_10  and  C_12
REMARK   12  A    between atoms: C_11  and  C_13
REMARK                            x       y       z     vdW  Elec       q    Type
REMARK                         _______ _______ _______ _____ _____    ______ ____
ROOT
ATOM      1  C   UNL     1      -8.397  10.971   6.965  0.00  0.00    +0.000 C 
ATOM      2  H   UNL     1      -9.075  11.706   7.415  0.00  0.00    +0.000 HD
ATOM      3  H   UNL     1      -7.379  11.255   7.261  0.00  0.00    +0.000 HD
ENDROOT
BRANCH   1   4
ATOM      4  C   UNL     1      -8.512  11.055   5.438  0.00  0.00    +0.000 C 
ATOM      5  H   UNL     1      -9.392  11.661   5.190  0.00  0.00    +0.000 HD
ATOM      6  H   UNL     1      -8.709  10.050   5.045  0.00  0.00    +0.000 HD
BRANCH   4   7
ATOM      7  C   UNL     1      -7.294  11.630   4.705  0.00  0.00    +0.000 C 
ATOM      8  H   UNL     1      -7.277  11.246   3.678  0.00  0.00    +0.000 HD
ATOM      9  H   UNL     1      -6.384  11.265   5.196  0.00  0.00    +0.000 HD
BRANCH   7  10
ATOM     10  C   UNL     1      -7.269  13.160   4.675  0.00  0.00    +0.000 C 
ATOM     11  H   UNL     1      -8.221  13.543   5.062  0.00  0.00    +0.000 HD
ATOM     12  H   UNL     1      -7.191  13.499   3.634  0.00  0.00    +0.000 HD
BRANCH  10  13
ATOM     13  C   UNL     1      -6.123  13.766   5.493  0.00  0.00    +0.000 C 
ATOM     14  H   UNL     1      -5.344  13.007   5.637  0.00  0.00    +0.000 HD
ATOM     15  H   UNL     1      -5.668  14.579   4.913  0.00  0.00    +0.000 HD
BRANCH  13  16
ATOM     16  C   UNL     1      -6.561  14.300   6.856  0.00  0.00    +0.000 C 
ATOM     17  H   UNL     1      -7.642  14.163   6.979  0.00  0.00    +0.000 HD
ATOM     18  H   UNL     1      -6.362  15.376   6.914  0.00  0.00    +0.000 HD
BRANCH  16  19
ATOM     19  C   UNL     1      -5.830  13.595   7.989  0.00  0.00    +0.000 C 
ATOM     20  H   UNL     1      -6.510  12.948   8.552  0.00  0.00    +0.000 HD
ATOM     21  H   UNL     1      -5.023  12.972   7.588  0.00  0.00    +0.000 HD
ATOM     22  H   UNL     1      -5.389  14.319   8.681  0.00  0.00    +0.000 HD
ENDBRANCH  16  19
ENDBRANCH  13  16
ENDBRANCH  10  13
ENDBRANCH   7  10
ENDBRANCH   4   7
ENDBRANCH   1   4
BRANCH   1  23
ATOM     23  C   UNL     1      -8.711   9.580   7.521  0.00  0.00    +0.000 C 
ATOM     24  H   UNL     1      -7.865   8.911   7.317  0.00  0.00    +0.000 HD
ATOM     25  H   UNL     1      -9.576   9.168   6.987  0.00  0.00    +0.000 HD
BRANCH  23  26
ATOM     26  C   UNL     1      -9.001   9.581   9.025  0.00  0.00    +0.000 C 
ATOM     27  H   UNL     1     -10.037   9.263   9.191  0.00  0.00    +0.000 HD
ATOM     28  H   UNL     1      -8.358   8.836   9.511  0.00  0.00    +0.000 HD
BRANCH  26  29
ATOM     29  C   UNL     1      -8.778  10.944   9.684  0.00  0.00    +0.000 C 
ATOM     30  H   UNL     1      -9.714  11.287  10.141  0.00  0.00    +0.000 HD
ATOM     31  H   UNL     1      -8.499  11.682   8.922  0.00  0.00    +0.000 HD
BRANCH  29  32
ATOM     32  C   UNL     1      -7.680  10.870  10.751  0.00  0.00    +0.000 C 
ATOM     33  H   UNL     1      -7.784  11.702  11.458  0.00  0.00    +0.000 HD
ATOM     34  H   UNL     1      -7.794   9.956  11.348  0.00  0.00    +0.000 HD
BRANCH  32  35
ATOM     35  C   UNL     1      -6.283  10.900  10.143  0.00  0.00    +0.000 C 
ATOM     36  H   UNL     1      -6.338  10.966   9.053  0.00  0.00    +0.000 HD
ATOM     37  H   UNL     1      -5.717  11.758  10.521  0.00  0.00    +0.000 HD
BRANCH  35  38
ATOM     38  O   UNL     1      -5.579   9.714  10.488  0.00  0.00    +0.000 OA
ATOM     39  H   UNL     1      -4.789   9.679   9.923  0.00  0.00    +0.000 HD
ENDBRANCH  35  38
ENDBRANCH  32  35
ENDBRANCH  29  32
ENDBRANCH  26  29
ENDBRANCH  23  26
ENDBRANCH   1  23
TORSDOF 12
ENDMDL
MODEL 5
REMARK VINA RESULT:    -4.537      1.677      4.482
REMARK INTER + INTRA:          -8.104
REMARK INTER:                  -7.304
REMARK INTRA:                  -0.800
REMARK UNBOUND:                -0.649
REMARK  Name = 8193
REMARK  12 active torsions:
REMARK  status: ('A' for Active; 'I' for Inactive)
REMARK    1  A    between atoms: O_1  and  C_12
REMARK    2  A    between atoms: C_2  and  C_3
REMARK    3  A    between atoms: C_2  and  C_4
REMARK    4  A    between atoms: C_3  and  C_5
REMARK    5  A    between atoms: C_4  and  C_6
REMARK    6  A    between atoms: C_5  and  C_7
REMARK    7  A    between atoms: C_6  and  C_8
REMARK    8  A    between atoms: C_7  and  C_9
REMARK    9  A    between atoms: C_8  and  C_10
REMARK   10  A    between atoms: C_9  and  C_11
REMARK   11  A    between atoms: C_10  and  C_12
REMARK   12  A    between atoms: C_11  and  C_13
REMARK                            x       y       z     vdW  Elec       q    Type
REMARK                         _______ _______ _______ _____ _____    ______ ____
ROOT
ATOM      1  C   UNL     1      -2.196   9.171  -9.298  0.00  0.00    +0.000 C 
ATOM      2  H   UNL     1      -1.570   9.833  -8.687  0.00  0.00    +0.000 HD
ATOM      3  H   UNL     1      -1.519   8.464  -9.795  0.00  0.00    +0.000 HD
ENDROOT
BRANCH   1   4
ATOM      4  C   UNL     1      -2.913  10.006 -10.364  0.00  0.00    +0.000 C 
ATOM      5  H   UNL     1      -2.973  11.043 -10.010  0.00  0.00    +0.000 HD
ATOM      6  H   UNL     1      -3.948   9.651 -10.452  0.00  0.00    +0.000 HD
BRANCH   4   7
ATOM      7  C   UNL     1      -2.281   9.998 -11.760  0.00  0.00    +0.000 C 
ATOM      8  H   UNL     1      -2.526  10.935 -12.274  0.00  0.00    +0.000 HD
ATOM      9  H   UNL     1      -2.732   9.188 -12.346  0.00  0.00    +0.000 HD
BRANCH   7  10
ATOM     10  C   UNL     1      -0.761   9.814 -11.738  0.00  0.00    +0.000 C 
ATOM     11  H   UNL     1      -0.429   9.687 -10.700  0.00  0.00    +0.000 HD
ATOM     12  H   UNL     1      -0.282  10.726 -12.114  0.00  0.00    +0.000 HD
BRANCH  10  13
ATOM     13  C   UNL     1      -0.282   8.613 -12.560  0.00  0.00    +0.000 C 
ATOM     14  H   UNL     1       0.786   8.449 -12.369  0.00  0.00    +0.000 HD
ATOM     15  H   UNL     1      -0.806   7.715 -12.211  0.00  0.00    +0.000 HD
BRANCH  13  16
ATOM     16  C   UNL     1      -0.502   8.776 -14.064  0.00  0.00    +0.000 C 
ATOM     17  H   UNL     1      -1.402   9.376 -14.245  0.00  0.00    +0.000 HD
ATOM     18  H   UNL     1      -0.670   7.795 -14.523  0.00  0.00    +0.000 HD
BRANCH  16  19
ATOM     19  C   UNL     1       0.693   9.441 -14.731  0.00  0.00    +0.000 C 
ATOM     20  H   UNL     1       0.390   9.970 -15.640  0.00  0.00    +0.000 HD
ATOM     21  H   UNL     1       1.149  10.168 -14.051  0.00  0.00    +0.000 HD
ATOM     22  H   UNL     1       1.454   8.701 -14.999  0.00  0.00    +0.000 HD
ENDBRANCH  16  19
ENDBRANCH  13  16
ENDBRANCH  10  13
ENDBRANCH   7  10
ENDBRANCH   4   7
ENDBRANCH   1   4
BRANCH   1  23
ATOM     23  C   UNL     1      -3.153   8.393  -8.392  0.00  0.00    +0.000 C 
ATOM     24  H   UNL     1      -4.126   8.901  -8.373  0.00  0.00    +0.000 HD
ATOM     25  H   UNL     1      -2.768   8.410  -7.365  0.00  0.00    +0.000 HD
BRANCH  23  26
ATOM     26  C   UNL     1      -3.354   6.939  -8.830  0.00  0.00    +0.000 C 
ATOM     27  H   UNL     1      -2.639   6.301  -8.296  0.00  0.00    +0.000 HD
ATOM     28  H   UNL     1      -4.357   6.612  -8.529  0.00  0.00    +0.000 HD
BRANCH  26  29
ATOM     29  C   UNL     1      -3.189   6.732 -10.338  0.00  0.00    +0.000 C 
ATOM     30  H   UNL     1      -2.702   5.768 -10.523  0.00  0.00    +0.000 HD
ATOM     31  H   UNL     1      -2.535   7.511 -10.747  0.00  0.00    +0.000 HD
BRANCH  29  32
ATOM     32  C   UNL     1      -4.544   6.773 -11.053  0.00  0.00    +0.000 C 
ATOM     33  H   UNL     1      -5.069   5.819 -10.921  0.00  0.00    +0.000 HD
ATOM     34  H   UNL     1      -5.189   7.535 -10.597  0.00  0.00    +0.000 HD
BRANCH  32  35
ATOM     35  C   UNL     1      -4.401   7.063 -12.542  0.00  0.00    +0.000 C 
ATOM     36  H   UNL     1      -5.186   6.556 -13.111  0.00  0.00    +0.000 HD
ATOM     37  H   UNL     1      -4.465   8.139 -12.733  0.00  0.00    +0.000 HD
BRANCH  35  38
ATOM     38  O   UNL     1      -3.139   6.602 -13.006  0.00  0.00    +0.000 OA
ATOM     39  H   UNL     1      -3.228   6.442 -13.961  0.00  0.00    +0.000 HD
ENDBRANCH  35  38
ENDBRANCH  32  35
ENDBRANCH  29  32
ENDBRANCH  26  29
ENDBRANCH  23  26
ENDBRANCH   1  23
TORSDOF 12
ENDMDL
MODEL 6
REMARK VINA RESULT:    -4.511      3.987      6.180
REMARK INTER + INTRA:          -8.061
REMARK INTER:                  -7.133
REMARK INTRA:                  -0.928
REMARK UNBOUND:                -0.649
REMARK  Name = 8193
REMARK  12 active torsions:
REMARK  status: ('A' for Active; 'I' for Inactive)
REMARK    1  A    between atoms: O_1  and  C_12
REMARK    2  A    between atoms: C_2  and  C_3
REMARK    3  A    between atoms: C_2  and  C_4
REMARK    4  A    between atoms: C_3  and  C_5
REMARK    5  A    between atoms: C_4  and  C_6
REMARK    6  A    between atoms: C_5  and  C_7
REMARK    7  A    between atoms: C_6  and  C_8
REMARK    8  A    between atoms: C_7  and  C_9
REMARK    9  A    between atoms: C_8  and  C_10
REMARK   10  A    between atoms: C_9  and  C_11
REMARK   11  A    between atoms: C_10  and  C_12
REMARK   12  A    between atoms: C_11  and  C_13
REMARK                            x       y       z     vdW  Elec       q    Type
REMARK                         _______ _______ _______ _____ _____    ______ ____
ROOT
ATOM      1  C   UNL     1      -3.149   8.803  -9.621  0.00  0.00    +0.000 C 
ATOM      2  H   UNL     1      -3.492   8.985 -10.647  0.00  0.00    +0.000 HD
ATOM      3  H   UNL     1      -3.856   9.311  -8.955  0.00  0.00    +0.000 HD
ENDROOT
BRANCH   1   4
ATOM      4  C   UNL     1      -1.760   9.427  -9.441  0.00  0.00    +0.000 C 
ATOM      5  H   UNL     1      -1.081   8.657  -9.055  0.00  0.00    +0.000 HD
ATOM      6  H   UNL     1      -1.820  10.201  -8.665  0.00  0.00    +0.000 HD
BRANCH   4   7
ATOM      7  C   UNL     1      -1.137  10.050 -10.696  0.00  0.00    +0.000 C 
ATOM      8  H   UNL     1      -0.045  10.035 -10.603  0.00  0.00    +0.000 HD
ATOM      9  H   UNL     1      -1.437  11.103 -10.752  0.00  0.00    +0.000 HD
BRANCH   7  10
ATOM     10  C   UNL     1      -1.545   9.343 -11.992  0.00  0.00    +0.000 C 
ATOM     11  H   UNL     1      -1.470  10.051 -12.826  0.00  0.00    +0.000 HD
ATOM     12  H   UNL     1      -2.598   9.044 -11.923  0.00  0.00    +0.000 HD
BRANCH  10  13
ATOM     13  C   UNL     1      -0.688   8.112 -12.308  0.00  0.00    +0.000 C 
ATOM     14  H   UNL     1      -0.113   8.300 -13.223  0.00  0.00    +0.000 HD
ATOM     15  H   UNL     1       0.041   7.973 -11.500  0.00  0.00    +0.000 HD
BRANCH  13  16
ATOM     16  C   UNL     1      -1.502   6.830 -12.482  0.00  0.00    +0.000 C 
ATOM     17  H   UNL     1      -1.602   6.320 -11.517  0.00  0.00    +0.000 HD
ATOM     18  H   UNL     1      -0.976   6.147 -13.158  0.00  0.00    +0.000 HD
BRANCH  16  19
ATOM     19  C   UNL     1      -2.885   7.124 -13.046  0.00  0.00    +0.000 C 
ATOM     20  H   UNL     1      -3.506   7.641 -12.308  0.00  0.00    +0.000 HD
ATOM     21  H   UNL     1      -2.805   7.763 -13.931  0.00  0.00    +0.000 HD
ATOM     22  H   UNL     1      -3.393   6.199 -13.338  0.00  0.00    +0.000 HD
ENDBRANCH  16  19
ENDBRANCH  13  16
ENDBRANCH  10  13
ENDBRANCH   7  10
ENDBRANCH   4   7
ENDBRANCH   1   4
BRANCH   1  23
ATOM     23  C   UNL     1      -3.179   7.300  -9.333  0.00  0.00    +0.000 C 
ATOM     24  H   UNL     1      -3.002   7.134  -8.262  0.00  0.00    +0.000 HD
ATOM     25  H   UNL     1      -2.354   6.815  -9.869  0.00  0.00    +0.000 HD
BRANCH  23  26
ATOM     26  C   UNL     1      -4.500   6.634  -9.732  0.00  0.00    +0.000 C 
ATOM     27  H   UNL     1      -5.138   7.373 -10.232  0.00  0.00    +0.000 HD
ATOM     28  H   UNL     1      -4.293   5.845 -10.466  0.00  0.00    +0.000 HD
BRANCH  26  29
ATOM     29  C   UNL     1      -5.257   6.031  -8.546  0.00  0.00    +0.000 C 
ATOM     30  H   UNL     1      -5.397   6.797  -7.774  0.00  0.00    +0.000 HD
ATOM     31  H   UNL     1      -4.662   5.225  -8.100  0.00  0.00    +0.000 HD
BRANCH  29  32
ATOM     32  C   UNL     1      -6.620   5.482  -8.982  0.00  0.00    +0.000 C 
ATOM     33  H   UNL     1      -6.787   5.688 -10.046  0.00  0.00    +0.000 HD
ATOM     34  H   UNL     1      -6.636   4.389  -8.883  0.00  0.00    +0.000 HD
BRANCH  32  35
ATOM     35  C   UNL     1      -7.766   6.075  -8.171  0.00  0.00    +0.000 C 
ATOM     36  H   UNL     1      -8.053   7.053  -8.568  0.00  0.00    +0.000 HD
ATOM     37  H   UNL     1      -8.638   5.413  -8.196  0.00  0.00    +0.000 HD
BRANCH  35  38
ATOM     38  O   UNL     1      -7.367   6.238  -6.817  0.00  0.00    +0.000 OA
ATOM     39  H   UNL     1      -7.975   5.707  -6.276  0.00  0.00    +0.000 HD
ENDBRANCH  35  38
ENDBRANCH  32  35
ENDBRANCH  29  32
ENDBRANCH  26  29
ENDBRANCH  23  26
ENDBRANCH   1  23
TORSDOF 12
ENDMDL
MODEL 7
REMARK VINA RESULT:    -4.452     18.265     20.649
REMARK INTER + INTRA:          -7.963
REMARK INTER:                  -6.984
REMARK INTRA:                  -0.979
REMARK UNBOUND:                -0.649
REMARK  Name = 8193
REMARK  12 active torsions:
REMARK  status: ('A' for Active; 'I' for Inactive)
REMARK    1  A    between atoms: O_1  and  C_12
REMARK    2  A    between atoms: C_2  and  C_3
REMARK    3  A    between atoms: C_2  and  C_4
REMARK    4  A    between atoms: C_3  and  C_5
REMARK    5  A    between atoms: C_4  and  C_6
REMARK    6  A    between atoms: C_5  and  C_7
REMARK    7  A    between atoms: C_6  and  C_8
REMARK    8  A    between atoms: C_7  and  C_9
REMARK    9  A    between atoms: C_8  and  C_10
REMARK   10  A    between atoms: C_9  and  C_11
REMARK   11  A    between atoms: C_10  and  C_12
REMARK   12  A    between atoms: C_11  and  C_13
REMARK                            x       y       z     vdW  Elec       q    Type
REMARK                         _______ _______ _______ _____ _____    ______ ____
ROOT
ATOM      1  C   UNL     1      -7.126  13.451   5.240  0.00  0.00    +0.000 C 
ATOM      2  H   UNL     1      -8.180  13.615   5.497  0.00  0.00    +0.000 HD
ATOM      3  H   UNL     1      -6.890  14.136   4.416  0.00  0.00    +0.000 HD
ENDROOT
BRANCH   1   4
ATOM      4  C   UNL     1      -6.950  12.008   4.753  0.00  0.00    +0.000 C 
ATOM      5  H   UNL     1      -6.010  11.617   5.160  0.00  0.00    +0.000 HD
ATOM      6  H   UNL     1      -6.834  12.017   3.661  0.00  0.00    +0.000 HD
BRANCH   4   7
ATOM      7  C   UNL     1      -8.083  11.038   5.109  0.00  0.00    +0.000 C 
ATOM      8  H   UNL     1      -7.662  10.043   5.293  0.00  0.00    +0.000 HD
ATOM      9  H   UNL     1      -8.751  10.944   4.244  0.00  0.00    +0.000 HD
BRANCH   7  10
ATOM     10  C   UNL     1      -8.899  11.477   6.327  0.00  0.00    +0.000 C 
ATOM     11  H   UNL     1      -9.954  11.229   6.162  0.00  0.00    +0.000 HD
ATOM     12  H   UNL     1      -8.842  12.569   6.425  0.00  0.00    +0.000 HD
BRANCH  10  13
ATOM     13  C   UNL     1      -8.437  10.827   7.635  0.00  0.00    +0.000 C 
ATOM     14  H   UNL     1      -7.354  10.966   7.743  0.00  0.00    +0.000 HD
ATOM     15  H   UNL     1      -8.907  11.352   8.476  0.00  0.00    +0.000 HD
BRANCH  13  16
ATOM     16  C   UNL     1      -8.761   9.336   7.724  0.00  0.00    +0.000 C 
ATOM     17  H   UNL     1      -8.530   8.848   6.770  0.00  0.00    +0.000 HD
ATOM     18  H   UNL     1      -9.833   9.200   7.906  0.00  0.00    +0.000 HD
BRANCH  16  19
ATOM     19  C   UNL     1      -7.976   8.663   8.840  0.00  0.00    +0.000 C 
ATOM     20  H   UNL     1      -7.212   7.993   8.432  0.00  0.00    +0.000 HD
ATOM     21  H   UNL     1      -7.474   9.416   9.456  0.00  0.00    +0.000 HD
ATOM     22  H   UNL     1      -8.637   8.078   9.487  0.00  0.00    +0.000 HD
ENDBRANCH  16  19
ENDBRANCH  13  16
ENDBRANCH  10  13
ENDBRANCH   7  10
ENDBRANCH   4   7
ENDBRANCH   1   4
BRANCH   1  23
ATOM     23  C   UNL     1      -6.247  13.795   6.445  0.00  0.00    +0.000 C 
ATOM     24  H   UNL     1      -5.341  14.308   6.096  0.00  0.00    +0.000 HD
ATOM     25  H   UNL     1      -5.919  12.865   6.926  0.00  0.00    +0.000 HD
BRANCH  23  26
ATOM     26  C   UNL     1      -6.956  14.674   7.479  0.00  0.00    +0.000 C 
ATOM     27  H   UNL     1      -6.423  15.629   7.565  0.00  0.00    +0.000 HD
ATOM     28  H   UNL     1      -7.966  14.906   7.118  0.00  0.00    +0.000 HD
BRANCH  26  29
ATOM     29  C   UNL     1      -7.054  14.024   8.862  0.00  0.00    +0.000 C 
ATOM     30  H   UNL     1      -8.042  13.563   8.980  0.00  0.00    +0.000 HD
ATOM     31  H   UNL     1      -6.959  14.791   9.639  0.00  0.00    +0.000 HD
BRANCH  29  32
ATOM     32  C   UNL     1      -5.964  12.963   9.053  0.00  0.00    +0.000 C 
ATOM     33  H   UNL     1      -6.072  12.172   8.300  0.00  0.00    +0.000 HD
ATOM     34  H   UNL     1      -4.974  13.404   8.884  0.00  0.00    +0.000 HD
BRANCH  32  35
ATOM     35  C   UNL     1      -6.005  12.340  10.443  0.00  0.00    +0.000 C 
ATOM     36  H   UNL     1      -5.349  12.884  11.129  0.00  0.00    +0.000 HD
ATOM     37  H   UNL     1      -7.024  12.355  10.842  0.00  0.00    +0.000 HD
BRANCH  35  38
ATOM     38  O   UNL     1      -5.570  10.988  10.381  0.00  0.00    +0.000 OA
ATOM     39  H   UNL     1      -5.137  10.790  11.228  0.00  0.00    +0.000 HD
ENDBRANCH  35  38
ENDBRANCH  32  35
ENDBRANCH  29  32
ENDBRANCH  26  29
ENDBRANCH  23  26
ENDBRANCH   1  23
TORSDOF 12
ENDMDL
MODEL 8
REMARK VINA RESULT:    -4.346     18.596     21.038
REMARK INTER + INTRA:          -7.790
REMARK INTER:                  -7.235
REMARK INTRA:                  -0.555
REMARK UNBOUND:                -0.649
REMARK  Name = 8193
REMARK  12 active torsions:
REMARK  status: ('A' for Active; 'I' for Inactive)
REMARK    1  A    between atoms: O_1  and  C_12
REMARK    2  A    between atoms: C_2  and  C_3
REMARK    3  A    between atoms: C_2  and  C_4
REMARK    4  A    between atoms: C_3  and  C_5
REMARK    5  A    between atoms: C_4  and  C_6
REMARK    6  A    between atoms: C_5  and  C_7
REMARK    7  A    between atoms: C_6  and  C_8
REMARK    8  A    between atoms: C_7  and  C_9
REMARK    9  A    between atoms: C_8  and  C_10
REMARK   10  A    between atoms: C_9  and  C_11
REMARK   11  A    between atoms: C_10  and  C_12
REMARK   12  A    between atoms: C_11  and  C_13
REMARK                            x       y       z     vdW  Elec       q    Type
REMARK                         _______ _______ _______ _____ _____    ______ ____
ROOT
ATOM      1  C   UNL     1      -9.119   9.989   7.472  0.00  0.00    +0.000 C 
ATOM      2  H   UNL     1     -10.033  10.414   7.903  0.00  0.00    +0.000 HD
ATOM      3  H   UNL     1      -9.434   9.266   6.709  0.00  0.00    +0.000 HD
ENDROOT
BRANCH   1   4
ATOM      4  C   UNL     1      -8.347   9.248   8.570  0.00  0.00    +0.000 C 
ATOM      5  H   UNL     1      -7.412   8.867   8.140  0.00  0.00    +0.000 HD
ATOM      6  H   UNL     1      -8.927   8.368   8.875  0.00  0.00    +0.000 HD
BRANCH   4   7
ATOM      7  C   UNL     1      -8.015  10.066   9.824  0.00  0.00    +0.000 C 
ATOM      8  H   UNL     1      -8.234  11.123   9.634  0.00  0.00    +0.000 HD
ATOM      9  H   UNL     1      -6.938   9.994  10.016  0.00  0.00    +0.000 HD
BRANCH   7  10
ATOM     10  C   UNL     1      -8.778   9.606  11.069  0.00  0.00    +0.000 C 
ATOM     11  H   UNL     1      -9.682  10.216  11.183  0.00  0.00    +0.000 HD
ATOM     12  H   UNL     1      -8.161   9.785  11.957  0.00  0.00    +0.000 HD
BRANCH  10  13
ATOM     13  C   UNL     1      -9.182   8.128  11.022  0.00  0.00    +0.000 C 
ATOM     14  H   UNL     1      -9.135   7.774   9.985  0.00  0.00    +0.000 HD
ATOM     15  H   UNL     1      -8.446   7.544  11.589  0.00  0.00    +0.000 HD
BRANCH  13  16
ATOM     16  C   UNL     1     -10.580   7.859  11.580  0.00  0.00    +0.000 C 
ATOM     17  H   UNL     1     -10.543   7.021  12.286  0.00  0.00    +0.000 HD
ATOM     18  H   UNL     1     -11.254   7.569  10.766  0.00  0.00    +0.000 HD
BRANCH  16  19
ATOM     19  C   UNL     1     -11.143   9.087  12.281  0.00  0.00    +0.000 C 
ATOM     20  H   UNL     1     -11.415   8.856  13.316  0.00  0.00    +0.000 HD
ATOM     21  H   UNL     1     -10.397   9.889  12.297  0.00  0.00    +0.000 HD
ATOM     22  H   UNL     1     -12.033   9.459  11.765  0.00  0.00    +0.000 HD
ENDBRANCH  16  19
ENDBRANCH  13  16
ENDBRANCH  10  13
ENDBRANCH   7  10
ENDBRANCH   4   7
ENDBRANCH   1   4
BRANCH   1  23
ATOM     23  C   UNL     1      -8.305  11.100   6.803  0.00  0.00    +0.000 C 
ATOM     24  H   UNL     1      -7.322  11.168   7.287  0.00  0.00    +0.000 HD
ATOM     25  H   UNL     1      -8.808  12.061   6.969  0.00  0.00    +0.000 HD
BRANCH  23  26
ATOM     26  C   UNL     1      -8.112  10.886   5.299  0.00  0.00    +0.000 C 
ATOM     27  H   UNL     1      -7.719   9.877   5.127  0.00  0.00    +0.000 HD
ATOM     28  H   UNL     1      -9.089  10.935   4.804  0.00  0.00    +0.000 HD
BRANCH  26  29
ATOM     29  C   UNL     1      -7.172  11.911   4.658  0.00  0.00    +0.000 C 
ATOM     30  H   UNL     1      -7.655  12.347   3.775  0.00  0.00    +0.000 HD
ATOM     31  H   UNL     1      -6.259  11.410   4.314  0.00  0.00    +0.000 HD
BRANCH  29  32
ATOM     32  C   UNL     1      -6.807  13.022   5.648  0.00  0.00    +0.000 C 
ATOM     33  H   UNL     1      -7.357  12.886   6.587  0.00  0.00    +0.000 HD
ATOM     34  H   UNL     1      -5.744  12.957   5.913  0.00  0.00    +0.000 HD
BRANCH  32  35
ATOM     35  C   UNL     1      -7.101  14.410   5.091  0.00  0.00    +0.000 C 
ATOM     36  H   UNL     1      -7.418  15.087   5.891  0.00  0.00    +0.000 HD
ATOM     37  H   UNL     1      -6.213  14.826   4.606  0.00  0.00    +0.000 HD
BRANCH  35  38
ATOM     38  O   UNL     1      -8.143  14.333   4.127  0.00  0.00    +0.000 OA
ATOM     39  H   UNL     1      -8.936  14.014   4.591  0.00  0.00    +0.000 HD
ENDBRANCH  35  38
ENDBRANCH  32  35
ENDBRANCH  29  32
ENDBRANCH  26  29
ENDBRANCH  23  26
ENDBRANCH   1  23
TORSDOF 12
ENDMDL
MODEL 9
REMARK VINA RESULT:    -4.338     19.110     21.892
REMARK INTER + INTRA:          -7.776
REMARK INTER:                  -7.040
REMARK INTRA:                  -0.737
REMARK UNBOUND:                -0.649
REMARK  Name = 8193
REMARK  12 active torsions:
REMARK  status: ('A' for Active; 'I' for Inactive)
REMARK    1  A    between atoms: O_1  and  C_12
REMARK    2  A    between atoms: C_2  and  C_3
REMARK    3  A    between atoms: C_2  and  C_4
REMARK    4  A    between atoms: C_3  and  C_5
REMARK    5  A    between atoms: C_4  and  C_6
REMARK    6  A    between atoms: C_5  and  C_7
REMARK    7  A    between atoms: C_6  and  C_8
REMARK    8  A    between atoms: C_7  and  C_9
REMARK    9  A    between atoms: C_8  and  C_10
REMARK   10  A    between atoms: C_9  and  C_11
REMARK   11  A    between atoms: C_10  and  C_12
REMARK   12  A    between atoms: C_11  and  C_13
REMARK                            x       y       z     vdW  Elec       q    Type
REMARK                         _______ _______ _______ _____ _____    ______ ____
ROOT
ATOM      1  C   UNL     1      -7.761  11.365   8.548  0.00  0.00    +0.000 C 
ATOM      2  H   UNL     1      -7.951  12.444   8.601  0.00  0.00    +0.000 HD
ATOM      3  H   UNL     1      -6.739  11.241   8.171  0.00  0.00    +0.000 HD
ENDROOT
BRANCH   1   4
ATOM      4  C   UNL     1      -8.741  10.735   7.551  0.00  0.00    +0.000 C 
ATOM      5  H   UNL     1      -9.723  10.655   8.034  0.00  0.00    +0.000 HD
ATOM      6  H   UNL     1      -8.416   9.708   7.341  0.00  0.00    +0.000 HD
BRANCH   4   7
ATOM      7  C   UNL     1      -8.905  11.471   6.217  0.00  0.00    +0.000 C 
ATOM      8  H   UNL     1      -8.677  12.534   6.361  0.00  0.00    +0.000 HD
ATOM      9  H   UNL     1      -9.956  11.411   5.909  0.00  0.00    +0.000 HD
BRANCH   7  10
ATOM     10  C   UNL     1      -8.021  10.910   5.100  0.00  0.00    +0.000 C 
ATOM     11  H   UNL     1      -8.655  10.607   4.258  0.00  0.00    +0.000 HD
ATOM     12  H   UNL     1      -7.518  10.004   5.460  0.00  0.00    +0.000 HD
BRANCH  10  13
ATOM     13  C   UNL     1      -6.972  11.906   4.596  0.00  0.00    +0.000 C 
ATOM     14  H   UNL     1      -5.982  11.598   4.954  0.00  0.00    +0.000 HD
ATOM     15  H   UNL     1      -6.939  11.861   3.501  0.00  0.00    +0.000 HD
BRANCH  13  16
ATOM     16  C   UNL     1      -7.236  13.346   5.036  0.00  0.00    +0.000 C 
ATOM     17  H   UNL     1      -8.108  13.378   5.700  0.00  0.00    +0.000 HD
ATOM     18  H   UNL     1      -7.473  13.963   4.161  0.00  0.00    +0.000 HD
BRANCH  16  19
ATOM     19  C   UNL     1      -6.032  13.938   5.753  0.00  0.00    +0.000 C 
ATOM     20  H   UNL     1      -6.306  14.296   6.750  0.00  0.00    +0.000 HD
ATOM     21  H   UNL     1      -5.250  13.179   5.867  0.00  0.00    +0.000 HD
ATOM     22  H   UNL     1      -5.612  14.777   5.188  0.00  0.00    +0.000 HD
ENDBRANCH  16  19
ENDBRANCH  13  16
ENDBRANCH  10  13
ENDBRANCH   7  10
ENDBRANCH   4   7
ENDBRANCH   1   4
BRANCH   1  23
ATOM     23  C   UNL     1      -7.853  10.762   9.952  0.00  0.00    +0.000 C 
ATOM     24  H   UNL     1      -8.905  10.739  10.267  0.00  0.00    +0.000 HD
ATOM     25  H   UNL     1      -7.325  11.414  10.658  0.00  0.00    +0.000 HD
BRANCH  23  26
ATOM     26  C   UNL     1      -7.271   9.348  10.042  0.00  0.00    +0.000 C 
ATOM     27  H   UNL     1      -6.835   9.077   9.073  0.00  0.00    +0.000 HD
ATOM     28  H   UNL     1      -6.451   9.346  10.770  0.00  0.00    +0.000 HD
BRANCH  26  29
ATOM     29  C   UNL     1      -8.304   8.292  10.446  0.00  0.00    +0.000 C 
ATOM     30  H   UNL     1      -7.990   7.812  11.380  0.00  0.00    +0.000 HD
ATOM     31  H   UNL     1      -8.351   7.510   9.679  0.00  0.00    +0.000 HD
BRANCH  29  32
ATOM     32  C   UNL     1      -9.692   8.916  10.627  0.00  0.00    +0.000 C 
ATOM     33  H   UNL     1      -9.596   9.957  10.961  0.00  0.00    +0.000 HD
ATOM     34  H   UNL     1     -10.216   8.959   9.664  0.00  0.00    +0.000 HD
BRANCH  32  35
ATOM     35  C   UNL     1     -10.544   8.145  11.628  0.00  0.00    +0.000 C 
ATOM     36  H   UNL     1     -11.596   8.157  11.328  0.00  0.00    +0.000 HD
ATOM     37  H   UNL     1     -10.208   7.106  11.698  0.00  0.00    +0.000 HD
BRANCH  35  38
ATOM     38  O   UNL     1     -10.435   8.739  12.915  0.00  0.00    +0.000 OA
ATOM     39  H   UNL     1      -9.488   8.771  13.133  0.00  0.00    +0.000 HD
ENDBRANCH  35  38
ENDBRANCH  32  35
ENDBRANCH  29  32
ENDBRANCH  26  29
ENDBRANCH  23  26
ENDBRANCH   1  23
TORSDOF 12
ENDMDL
MODEL 10
REMARK VINA RESULT:    -4.281      1.350      2.077
REMARK INTER + INTRA:          -7.682
REMARK INTER:                  -7.033
REMARK INTRA:                  -0.649
REMARK UNBOUND:                -0.649
REMARK  Name = 8193
REMARK  12 active torsions:
REMARK  status: ('A' for Active; 'I' for Inactive)
REMARK    1  A    between atoms: O_1  and  C_12
REMARK    2  A    between atoms: C_2  and  C_3
REMARK    3  A    between atoms: C_2  and  C_4
REMARK    4  A    between atoms: C_3  and  C_5
REMARK    5  A    between atoms: C_4  and  C_6
REMARK    6  A    between atoms: C_5  and  C_7
REMARK    7  A    between atoms: C_6  and  C_8
REMARK    8  A    between atoms: C_7  and  C_9
REMARK    9  A    between atoms: C_8  and  C_10
REMARK   10  A    between atoms: C_9  and  C_11
REMARK   11  A    between atoms: C_10  and  C_12
REMARK   12  A    between atoms: C_11  and  C_13
REMARK                            x       y       z     vdW  Elec       q    Type
REMARK                         _______ _______ _______ _____ _____    ______ ____
ROOT
ATOM      1  C   UNL     1      -3.225  10.028 -11.881  0.00  0.00    +0.000 C 
ATOM      2  H   UNL     1      -3.628  11.043 -11.786  0.00  0.00    +0.000 HD
ATOM      3  H   UNL     1      -4.073   9.339 -11.786  0.00  0.00    +0.000 HD
ENDROOT
BRANCH   1   4
ATOM      4  C   UNL     1      -2.243   9.771 -10.732  0.00  0.00    +0.000 C 
ATOM      5  H   UNL     1      -1.480  10.559 -10.745  0.00  0.00    +0.000 HD
ATOM      6  H   UNL     1      -1.715   8.828 -10.925  0.00  0.00    +0.000 HD
BRANCH   4   7
ATOM      7  C   UNL     1      -2.857   9.701  -9.329  0.00  0.00    +0.000 C 
ATOM      8  H   UNL     1      -3.884  10.084  -9.365  0.00  0.00    +0.000 HD
ATOM      9  H   UNL     1      -2.293  10.368  -8.665  0.00  0.00    +0.000 HD
BRANCH   7  10
ATOM     10  C   UNL     1      -2.863   8.290  -8.737  0.00  0.00    +0.000 C 
ATOM     11  H   UNL     1      -3.737   8.176  -8.085  0.00  0.00    +0.000 HD
ATOM     12  H   UNL     1      -1.976   8.161  -8.103  0.00  0.00    +0.000 HD
BRANCH  10  13
ATOM     13  C   UNL     1      -2.891   7.185  -9.799  0.00  0.00    +0.000 C 
ATOM     14  H   UNL     1      -2.414   7.555 -10.715  0.00  0.00    +0.000 HD
ATOM     15  H   UNL     1      -2.284   6.342  -9.447  0.00  0.00    +0.000 HD
BRANCH  13  16
ATOM     16  C   UNL     1      -4.299   6.693 -10.131  0.00  0.00    +0.000 C 
ATOM     17  H   UNL     1      -4.243   5.843 -10.821  0.00  0.00    +0.000 HD
ATOM     18  H   UNL     1      -4.859   7.486 -10.639  0.00  0.00    +0.000 HD
BRANCH  16  19
ATOM     19  C   UNL     1      -5.051   6.276  -8.875  0.00  0.00    +0.000 C 
ATOM     20  H   UNL     1      -4.627   5.360  -8.451  0.00  0.00    +0.000 HD
ATOM     21  H   UNL     1      -4.986   7.063  -8.117  0.00  0.00    +0.000 HD
ATOM     22  H   UNL     1      -6.109   6.098  -9.093  0.00  0.00    +0.000 HD
ENDBRANCH  16  19
ENDBRANCH  13  16
ENDBRANCH  10  13
ENDBRANCH   7  10
ENDBRANCH   4   7
ENDBRANCH   1   4
BRANCH   1  23
ATOM     23  C   UNL     1      -2.595   9.857 -13.266  0.00  0.00    +0.000 C 
ATOM     24  H   UNL     1      -2.930  10.673 -13.919  0.00  0.00    +0.000 HD
ATOM     25  H   UNL     1      -2.960   8.923 -13.713  0.00  0.00    +0.000 HD
BRANCH  23  26
ATOM     26  C   UNL     1      -1.064   9.835 -13.235  0.00  0.00    +0.000 C 
ATOM     27  H   UNL     1      -0.728   9.642 -12.210  0.00  0.00    +0.000 HD
ATOM     28  H   UNL     1      -0.707   8.998 -13.849  0.00  0.00    +0.000 HD
BRANCH  26  29
ATOM     29  C   UNL     1      -0.429  11.133 -13.740  0.00  0.00    +0.000 C 
ATOM     30  H   UNL     1       0.003  11.682 -12.895  0.00  0.00    +0.000 HD
ATOM     31  H   UNL     1      -1.201  11.774 -14.182  0.00  0.00    +0.000 HD
BRANCH  29  32
ATOM     32  C   UNL     1       0.659  10.849 -14.782  0.00  0.00    +0.000 C 
ATOM     33  H   UNL     1       0.922  11.771 -15.314  0.00  0.00    +0.000 HD
ATOM     34  H   UNL     1       1.580  10.518 -14.285  0.00  0.00    +0.000 HD
BRANCH  32  35
ATOM     35  C   UNL     1       0.227   9.793 -15.792  0.00  0.00    +0.000 C 
ATOM     36  H   UNL     1      -0.804   9.480 -15.605  0.00  0.00    +0.000 HD
ATOM     37  H   UNL     1       0.298  10.185 -16.812  0.00  0.00    +0.000 HD
BRANCH  35  38
ATOM     38  O   UNL     1       1.070   8.653 -15.691  0.00  0.00    +0.000 OA
ATOM     39  H   UNL     1       1.658   8.801 -14.932  0.00  0.00    +0.000 HD
ENDBRANCH  35  38
ENDBRANCH  32  35
ENDBRANCH  29  32
ENDBRANCH  26  29
ENDBRANCH  23  26
ENDBRANCH   1  23
TORSDOF 12
ENDMDL
