MODEL 1
REMARK VINA RESULT:    -4.436      0.000      0.000
REMARK INTER + INTRA:          -6.309
REMARK INTER:                  -6.182
REMARK INTRA:                  -0.127
REMARK UNBOUND:                -0.317
REMARK  Name = 18827
REMARK  7 active torsions:
REMARK  status: ('A' for Active; 'I' for Inactive)
REMARK    1  A    between atoms: O_1  and  C_6
REMARK    2  A    between atoms: C_2  and  C_3
REMARK    3  A    between atoms: C_2  and  C_4
REMARK    4  A    between atoms: C_3  and  C_5
REMARK    5  A    between atoms: C_4  and  C_6
REMARK    6  A    between atoms: C_5  and  C_7
REMARK    7  A    between atoms: C_6  and  C_8
REMARK                            x       y       z     vdW  Elec       q    Type
REMARK                         _______ _______ _______ _____ _____    ______ ____
ROOT
ATOM      1  C   UNL     1       3.704   8.518   2.210  0.00  0.00    +0.000 C 
ATOM      2  H   UNL     1       3.037   7.651   2.295  0.00  0.00    +0.000 HD
ATOM      3  H   UNL     1       3.295   9.305   2.856  0.00  0.00    +0.000 HD
ENDROOT
BRANCH   1   4
ATOM      4  C   UNL     1       5.104   8.135   2.696  0.00  0.00    +0.000 C 
ATOM      5  H   UNL     1       5.562   8.987   3.214  0.00  0.00    +0.000 HD
ATOM      6  H   UNL     1       5.740   7.903   1.833  0.00  0.00    +0.000 HD
BRANCH   4   7
ATOM      7  C   UNL     1       5.056   6.933   3.639  0.00  0.00    +0.000 C 
ATOM      8  H   UNL     1       4.077   6.882   4.129  0.00  0.00    +0.000 HD
ATOM      9  H   UNL     1       5.182   6.006   3.068  0.00  0.00    +0.000 HD
BRANCH   7  10
ATOM     10  C   UNL     1       6.143   7.014   4.699  0.00  0.00    +0.000 C 
ATOM     11  H   UNL     1       5.839   6.499   5.615  0.00  0.00    +0.000 HD
ATOM     12  H   UNL     1       7.074   6.560   4.343  0.00  0.00    +0.000 HD
ATOM     13  H   UNL     1       6.350   8.060   4.950  0.00  0.00    +0.000 HD
ENDBRANCH   7  10
ENDBRANCH   4   7
ENDBRANCH   1   4
BRANCH   1  14
ATOM     14  C   UNL     1       3.736   9.013   0.762  0.00  0.00    +0.000 C 
ATOM     15  H   UNL     1       2.730   8.898   0.337  0.00  0.00    +0.000 HD
ATOM     16  H   UNL     1       4.407   8.373   0.176  0.00  0.00    +0.000 HD
BRANCH  14  17
ATOM     17  C   UNL     1       4.183  10.476   0.617  0.00  0.00    +0.000 C 
ATOM     18  H   UNL     1       5.175  10.584   1.074  0.00  0.00    +0.000 HD
BRANCH  17  19
ATOM     19  C   UNL     1       4.233  10.937  -0.816  0.00  0.00    +0.000 C 
ATOM     20  C   UNL     1       3.185  11.198  -1.608  0.00  0.00    +0.000 C 
ATOM     21  H   UNL     1       5.226  11.057  -1.244  0.00  0.00    +0.000 HD
ATOM     22  H   UNL     1       3.334  11.520  -2.631  0.00  0.00    +0.000 HD
ATOM     23  H   UNL     1       2.168  11.093  -1.247  0.00  0.00    +0.000 HD
ENDBRANCH  17  19
BRANCH  17  24
ATOM     24  O   UNL     1       3.289  11.290   1.377  0.00  0.00    +0.000 OA
ATOM     25  H   UNL     1       3.727  12.143   1.531  0.00  0.00    +0.000 HD
ENDBRANCH  17  24
ENDBRANCH  14  17
ENDBRANCH   1  14
TORSDOF 7
ENDMDL
MODEL 2
REMARK VINA RESULT:    -4.383      3.146      4.141
REMARK INTER + INTRA:          -6.237
REMARK INTER:                  -6.012
REMARK INTRA:                  -0.225
REMARK UNBOUND:                -0.317
REMARK  Name = 18827
REMARK  7 active torsions:
REMARK  status: ('A' for Active; 'I' for Inactive)
REMARK    1  A    between atoms: O_1  and  C_6
REMARK    2  A    between atoms: C_2  and  C_3
REMARK    3  A    between atoms: C_2  and  C_4
REMARK    4  A    between atoms: C_3  and  C_5
REMARK    5  A    between atoms: C_4  and  C_6
REMARK    6  A    between atoms: C_5  and  C_7
REMARK    7  A    between atoms: C_6  and  C_8
REMARK                            x       y       z     vdW  Elec       q    Type
REMARK                         _______ _______ _______ _____ _____    ______ ____
ROOT
ATOM      1  C   UNL     1       6.406  11.552  -0.140  0.00  0.00    +0.000 C 
ATOM      2  H   UNL     1       7.041  11.799   0.720  0.00  0.00    +0.000 HD
ATOM      3  H   UNL     1       5.985  12.493  -0.513  0.00  0.00    +0.000 HD
ENDROOT
BRANCH   1   4
ATOM      4  C   UNL     1       7.259  10.905  -1.235  0.00  0.00    +0.000 C 
ATOM      5  H   UNL     1       7.764  11.685  -1.818  0.00  0.00    +0.000 HD
ATOM      6  H   UNL     1       6.611  10.354  -1.926  0.00  0.00    +0.000 HD
BRANCH   4   7
ATOM      7  C   UNL     1       8.303   9.959  -0.640  0.00  0.00    +0.000 C 
ATOM      8  H   UNL     1       8.354  10.095   0.446  0.00  0.00    +0.000 HD
ATOM      9  H   UNL     1       8.010   8.919  -0.825  0.00  0.00    +0.000 HD
BRANCH   7  10
ATOM     10  C   UNL     1       9.679  10.202  -1.240  0.00  0.00    +0.000 C 
ATOM     11  H   UNL     1       9.724  11.173  -1.740  0.00  0.00    +0.000 HD
ATOM     12  H   UNL     1      10.454  10.176  -0.467  0.00  0.00    +0.000 HD
ATOM     13  H   UNL     1       9.912   9.428  -1.979  0.00  0.00    +0.000 HD
ENDBRANCH   7  10
ENDBRANCH   4   7
ENDBRANCH   1   4
BRANCH   1  14
ATOM     14  C   UNL     1       5.270  10.623   0.297  0.00  0.00    +0.000 C 
ATOM     15  H   UNL     1       5.611  10.051   1.170  0.00  0.00    +0.000 HD
ATOM     16  H   UNL     1       5.068   9.899  -0.502  0.00  0.00    +0.000 HD
BRANCH  14  17
ATOM     17  C   UNL     1       3.969  11.359   0.650  0.00  0.00    +0.000 C 
ATOM     18  H   UNL     1       4.220  12.240   1.256  0.00  0.00    +0.000 HD
BRANCH  17  19
ATOM     19  C   UNL     1       3.187  11.788  -0.564  0.00  0.00    +0.000 C 
ATOM     20  C   UNL     1       3.125  11.149  -1.740  0.00  0.00    +0.000 C 
ATOM     21  H   UNL     1       2.628  12.716  -0.469  0.00  0.00    +0.000 HD
ATOM     22  H   UNL     1       2.534  11.550  -2.554  0.00  0.00    +0.000 HD
ATOM     23  H   UNL     1       3.662  10.222  -1.905  0.00  0.00    +0.000 HD
ENDBRANCH  17  19
BRANCH  17  24
ATOM     24  O   UNL     1       3.184  10.500   1.477  0.00  0.00    +0.000 OA
ATOM     25  H   UNL     1       3.440  10.664   2.400  0.00  0.00    +0.000 HD
ENDBRANCH  17  24
ENDBRANCH  14  17
ENDBRANCH   1  14
TORSDOF 7
ENDMDL
MODEL 3
REMARK VINA RESULT:    -4.243      2.878      4.143
REMARK INTER + INTRA:          -6.049
REMARK INTER:                  -5.533
REMARK INTRA:                  -0.516
REMARK UNBOUND:                -0.317
REMARK  Name = 18827
REMARK  7 active torsions:
REMARK  status: ('A' for Active; 'I' for Inactive)
REMARK    1  A    between atoms: O_1  and  C_6
REMARK    2  A    between atoms: C_2  and  C_3
REMARK    3  A    between atoms: C_2  and  C_4
REMARK    4  A    between atoms: C_3  and  C_5
REMARK    5  A    between atoms: C_4  and  C_6
REMARK    6  A    between atoms: C_5  and  C_7
REMARK    7  A    between atoms: C_6  and  C_8
REMARK                            x       y       z     vdW  Elec       q    Type
REMARK                         _______ _______ _______ _____ _____    ______ ____
ROOT
ATOM      1  C   UNL     1       4.395  11.472  -0.371  0.00  0.00    +0.000 C 
ATOM      2  H   UNL     1       4.424  10.570  -0.994  0.00  0.00    +0.000 HD
ATOM      3  H   UNL     1       3.945  12.269  -0.976  0.00  0.00    +0.000 HD
ENDROOT
BRANCH   1   4
ATOM      4  C   UNL     1       3.526  11.214   0.862  0.00  0.00    +0.000 C 
ATOM      5  H   UNL     1       2.466  11.323   0.597  0.00  0.00    +0.000 HD
ATOM      6  H   UNL     1       3.745  11.966   1.628  0.00  0.00    +0.000 HD
BRANCH   4   7
ATOM      7  C   UNL     1       3.766   9.814   1.429  0.00  0.00    +0.000 C 
ATOM      8  H   UNL     1       4.716   9.791   1.975  0.00  0.00    +0.000 HD
ATOM      9  H   UNL     1       2.974   9.561   2.143  0.00  0.00    +0.000 HD
BRANCH   7  10
ATOM     10  C   UNL     1       3.795   8.765   0.328  0.00  0.00    +0.000 C 
ATOM     11  H   UNL     1       2.947   8.885  -0.351  0.00  0.00    +0.000 HD
ATOM     12  H   UNL     1       4.718   8.837  -0.257  0.00  0.00    +0.000 HD
ATOM     13  H   UNL     1       3.745   7.761   0.762  0.00  0.00    +0.000 HD
ENDBRANCH   7  10
ENDBRANCH   4   7
ENDBRANCH   1   4
BRANCH   1  14
ATOM     14  C   UNL     1       5.817  11.878   0.028  0.00  0.00    +0.000 C 
ATOM     15  H   UNL     1       5.965  11.613   1.083  0.00  0.00    +0.000 HD
ATOM     16  H   UNL     1       5.914  12.968  -0.046  0.00  0.00    +0.000 HD
BRANCH  14  17
ATOM     17  C   UNL     1       6.912  11.215  -0.821  0.00  0.00    +0.000 C 
ATOM     18  H   UNL     1       7.756  11.911  -0.906  0.00  0.00    +0.000 HD
BRANCH  17  19
ATOM     19  C   UNL     1       7.391   9.907  -0.247  0.00  0.00    +0.000 C 
ATOM     20  C   UNL     1       7.359   8.712  -0.851  0.00  0.00    +0.000 C 
ATOM     21  H   UNL     1       7.792   9.947   0.763  0.00  0.00    +0.000 HD
ATOM     22  H   UNL     1       7.726   7.828  -0.343  0.00  0.00    +0.000 HD
ATOM     23  H   UNL     1       6.967   8.599  -1.856  0.00  0.00    +0.000 HD
ENDBRANCH  17  19
BRANCH  17  24
ATOM     24  O   UNL     1       6.398  11.028  -2.140  0.00  0.00    +0.000 OA
ATOM     25  H   UNL     1       7.094  11.284  -2.767  0.00  0.00    +0.000 HD
ENDBRANCH  17  24
ENDBRANCH  14  17
ENDBRANCH   1  14
TORSDOF 7
ENDMDL
MODEL 4
REMARK VINA RESULT:    -4.160      2.174      3.121
REMARK INTER + INTRA:          -5.936
REMARK INTER:                  -5.360
REMARK INTRA:                  -0.576
REMARK UNBOUND:                -0.317
REMARK  Name = 18827
REMARK  7 active torsions:
REMARK  status: ('A' for Active; 'I' for Inactive)
REMARK    1  A    between atoms: O_1  and  C_6
REMARK    2  A    between atoms: C_2  and  C_3
REMARK    3  A    between atoms: C_2  and  C_4
REMARK    4  A    between atoms: C_3  and  C_5
REMARK    5  A    between atoms: C_4  and  C_6
REMARK    6  A    between atoms: C_5  and  C_7
REMARK    7  A    between atoms: C_6  and  C_8
REMARK                            x       y       z     vdW  Elec       q    Type
REMARK                         _______ _______ _______ _____ _____    ______ ____
ROOT
ATOM      1  C   UNL     1       6.901  10.314   0.100  0.00  0.00    +0.000 C 
ATOM      2  H   UNL     1       6.631  10.435   1.156  0.00  0.00    +0.000 HD
ATOM      3  H   UNL     1       7.911  10.723  -0.026  0.00  0.00    +0.000 HD
ENDROOT
BRANCH   1   4
ATOM      4  C   UNL     1       6.905   8.826  -0.259  0.00  0.00    +0.000 C 
ATOM      5  H   UNL     1       7.880   8.550  -0.682  0.00  0.00    +0.000 HD
ATOM      6  H   UNL     1       6.152   8.634  -1.032  0.00  0.00    +0.000 HD
BRANCH   4   7
ATOM      7  C   UNL     1       6.620   7.958   0.967  0.00  0.00    +0.000 C 
ATOM      8  H   UNL     1       5.547   7.748   1.034  0.00  0.00    +0.000 HD
ATOM      9  H   UNL     1       7.134   6.994   0.868  0.00  0.00    +0.000 HD
BRANCH   7  10
ATOM     10  C   UNL     1       7.079   8.636   2.248  0.00  0.00    +0.000 C 
ATOM     11  H   UNL     1       7.906   8.088   2.709  0.00  0.00    +0.000 HD
ATOM     12  H   UNL     1       7.412   9.660   2.052  0.00  0.00    +0.000 HD
ATOM     13  H   UNL     1       6.256   8.678   2.970  0.00  0.00    +0.000 HD
ENDBRANCH   7  10
ENDBRANCH   4   7
ENDBRANCH   1   4
BRANCH   1  14
ATOM     14  C   UNL     1       5.923  11.094  -0.783  0.00  0.00    +0.000 C 
ATOM     15  H   UNL     1       6.236  10.976  -1.829  0.00  0.00    +0.000 HD
ATOM     16  H   UNL     1       5.996  12.163  -0.545  0.00  0.00    +0.000 HD
BRANCH  14  17
ATOM     17  C   UNL     1       4.462  10.645  -0.636  0.00  0.00    +0.000 C 
ATOM     18  H   UNL     1       4.404   9.570  -0.852  0.00  0.00    +0.000 HD
BRANCH  17  19
ATOM     19  C   UNL     1       3.897  10.915   0.735  0.00  0.00    +0.000 C 
ATOM     20  C   UNL     1       3.572  10.001   1.658  0.00  0.00    +0.000 C 
ATOM     21  H   UNL     1       3.731  11.961   0.984  0.00  0.00    +0.000 HD
ATOM     22  H   UNL     1       3.165  10.306   2.615  0.00  0.00    +0.000 HD
ATOM     23  H   UNL     1       3.706   8.941   1.472  0.00  0.00    +0.000 HD
ENDBRANCH  17  19
BRANCH  17  24
ATOM     24  O   UNL     1       3.691  11.309  -1.637  0.00  0.00    +0.000 OA
ATOM     25  H   UNL     1       3.869  12.261  -1.563  0.00  0.00    +0.000 HD
ENDBRANCH  17  24
ENDBRANCH  14  17
ENDBRANCH   1  14
TORSDOF 7
ENDMDL
MODEL 5
REMARK VINA RESULT:    -4.157     14.895     16.548
REMARK INTER + INTRA:          -5.932
REMARK INTER:                  -5.747
REMARK INTRA:                  -0.186
REMARK UNBOUND:                -0.317
REMARK  Name = 18827
REMARK  7 active torsions:
REMARK  status: ('A' for Active; 'I' for Inactive)
REMARK    1  A    between atoms: O_1  and  C_6
REMARK    2  A    between atoms: C_2  and  C_3
REMARK    3  A    between atoms: C_2  and  C_4
REMARK    4  A    between atoms: C_3  and  C_5
REMARK    5  A    between atoms: C_4  and  C_6
REMARK    6  A    between atoms: C_5  and  C_7
REMARK    7  A    between atoms: C_6  and  C_8
REMARK                            x       y       z     vdW  Elec       q    Type
REMARK                         _______ _______ _______ _____ _____    ______ ____
ROOT
ATOM      1  C   UNL     1      -9.500   7.676  -6.694  0.00  0.00    +0.000 C 
ATOM      2  H   UNL     1      -9.779   7.454  -7.731  0.00  0.00    +0.000 HD
ATOM      3  H   UNL     1      -8.419   7.861  -6.682  0.00  0.00    +0.000 HD
ENDROOT
BRANCH   1   4
ATOM      4  C   UNL     1     -10.239   8.931  -6.224  0.00  0.00    +0.000 C 
ATOM      5  H   UNL     1      -9.583   9.525  -5.575  0.00  0.00    +0.000 HD
ATOM      6  H   UNL     1     -11.109   8.641  -5.624  0.00  0.00    +0.000 HD
BRANCH   4   7
ATOM      7  C   UNL     1     -10.690   9.787  -7.408  0.00  0.00    +0.000 C 
ATOM      8  H   UNL     1     -11.784   9.855  -7.423  0.00  0.00    +0.000 HD
ATOM      9  H   UNL     1     -10.303  10.807  -7.300  0.00  0.00    +0.000 HD
BRANCH   7  10
ATOM     10  C   UNL     1     -10.207   9.210  -8.729  0.00  0.00    +0.000 C 
ATOM     11  H   UNL     1     -10.317   9.935  -9.539  0.00  0.00    +0.000 HD
ATOM     12  H   UNL     1      -9.153   8.920  -8.667  0.00  0.00    +0.000 HD
ATOM     13  H   UNL     1     -10.789   8.319  -8.988  0.00  0.00    +0.000 HD
ENDBRANCH   7  10
ENDBRANCH   4   7
ENDBRANCH   1   4
BRANCH   1  14
ATOM     14  C   UNL     1      -9.820   6.476  -5.798  0.00  0.00    +0.000 C 
ATOM     15  H   UNL     1     -10.059   5.620  -6.442  0.00  0.00    +0.000 HD
ATOM     16  H   UNL     1     -10.720   6.696  -5.210  0.00  0.00    +0.000 HD
BRANCH  14  17
ATOM     17  C   UNL     1      -8.678   6.092  -4.845  0.00  0.00    +0.000 C 
ATOM     18  H   UNL     1      -8.966   6.375  -3.824  0.00  0.00    +0.000 HD
BRANCH  17  19
ATOM     19  C   UNL     1      -8.344   4.624  -4.888  0.00  0.00    +0.000 C 
ATOM     20  C   UNL     1      -9.215   3.607  -4.878  0.00  0.00    +0.000 C 
ATOM     21  H   UNL     1      -7.285   4.377  -4.919  0.00  0.00    +0.000 HD
ATOM     22  H   UNL     1      -8.865   2.582  -4.906  0.00  0.00    +0.000 HD
ATOM     23  H   UNL     1     -10.284   3.782  -4.842  0.00  0.00    +0.000 HD
ENDBRANCH  17  19
BRANCH  17  24
ATOM     24  O   UNL     1      -7.535   6.879  -5.183  0.00  0.00    +0.000 OA
ATOM     25  H   UNL     1      -7.792   7.814  -5.122  0.00  0.00    +0.000 HD
ENDBRANCH  17  24
ENDBRANCH  14  17
ENDBRANCH   1  14
TORSDOF 7
ENDMDL
MODEL 6
REMARK VINA RESULT:    -4.118      1.805      5.025
REMARK INTER + INTRA:          -5.880
REMARK INTER:                  -5.636
REMARK INTRA:                  -0.243
REMARK UNBOUND:                -0.317
REMARK  Name = 18827
REMARK  7 active torsions:
REMARK  status: ('A' for Active; 'I' for Inactive)
REMARK    1  A    between atoms: O_1  and  C_6
REMARK    2  A    between atoms: C_2  and  C_3
REMARK    3  A    between atoms: C_2  and  C_4
REMARK    4  A    between atoms: C_3  and  C_5
REMARK    5  A    between atoms: C_4  and  C_6
REMARK    6  A    between atoms: C_5  and  C_7
REMARK    7  A    between atoms: C_6  and  C_8
REMARK                            x       y       z     vdW  Elec       q    Type
REMARK                         _______ _______ _______ _____ _____    ______ ____
ROOT
ATOM      1  C   UNL     1       3.773   9.731   1.845  0.00  0.00    +0.000 C 
ATOM      2  H   UNL     1       4.062  10.056   2.852  0.00  0.00    +0.000 HD
ATOM      3  H   UNL     1       2.792   9.248   1.929  0.00  0.00    +0.000 HD
ENDROOT
BRANCH   1   4
ATOM      4  C   UNL     1       3.664  10.951   0.926  0.00  0.00    +0.000 C 
ATOM      5  H   UNL     1       4.254  11.778   1.340  0.00  0.00    +0.000 HD
ATOM      6  H   UNL     1       2.621  11.287   0.886  0.00  0.00    +0.000 HD
BRANCH   4   7
ATOM      7  C   UNL     1       4.158  10.631  -0.485  0.00  0.00    +0.000 C 
ATOM      8  H   UNL     1       5.169  11.028  -0.625  0.00  0.00    +0.000 HD
ATOM      9  H   UNL     1       4.214   9.544  -0.622  0.00  0.00    +0.000 HD
BRANCH   7  10
ATOM     10  C   UNL     1       3.237  11.218  -1.543  0.00  0.00    +0.000 C 
ATOM     11  H   UNL     1       3.599  12.194  -1.881  0.00  0.00    +0.000 HD
ATOM     12  H   UNL     1       3.167  10.557  -2.412  0.00  0.00    +0.000 HD
ATOM     13  H   UNL     1       2.229  11.351  -1.135  0.00  0.00    +0.000 HD
ENDBRANCH   7  10
ENDBRANCH   4   7
ENDBRANCH   1   4
BRANCH   1  14
ATOM     14  C   UNL     1       4.792   8.722   1.308  0.00  0.00    +0.000 C 
ATOM     15  H   UNL     1       5.108   9.052   0.309  0.00  0.00    +0.000 HD
ATOM     16  H   UNL     1       4.303   7.747   1.184  0.00  0.00    +0.000 HD
BRANCH  14  17
ATOM     17  C   UNL     1       6.029   8.555   2.202  0.00  0.00    +0.000 C 
ATOM     18  H   UNL     1       6.049   9.379   2.927  0.00  0.00    +0.000 HD
BRANCH  17  19
ATOM     19  C   UNL     1       6.054   7.238   2.933  0.00  0.00    +0.000 C 
ATOM     20  C   UNL     1       5.090   6.744   3.720  0.00  0.00    +0.000 C 
ATOM     21  H   UNL     1       6.956   6.642   2.812  0.00  0.00    +0.000 HD
ATOM     22  H   UNL     1       5.214   5.784   4.206  0.00  0.00    +0.000 HD
ATOM     23  H   UNL     1       4.168   7.289   3.890  0.00  0.00    +0.000 HD
ENDBRANCH  17  19
BRANCH  17  24
ATOM     24  O   UNL     1       7.190   8.698   1.384  0.00  0.00    +0.000 OA
ATOM     25  H   UNL     1       6.912   9.100   0.544  0.00  0.00    +0.000 HD
ENDBRANCH  17  24
ENDBRANCH  14  17
ENDBRANCH   1  14
TORSDOF 7
ENDMDL
MODEL 7
REMARK VINA RESULT:    -4.060      1.622      2.134
REMARK INTER + INTRA:          -5.800
REMARK INTER:                  -5.435
REMARK INTRA:                  -0.365
REMARK UNBOUND:                -0.317
REMARK  Name = 18827
REMARK  7 active torsions:
REMARK  status: ('A' for Active; 'I' for Inactive)
REMARK    1  A    between atoms: O_1  and  C_6
REMARK    2  A    between atoms: C_2  and  C_3
REMARK    3  A    between atoms: C_2  and  C_4
REMARK    4  A    between atoms: C_3  and  C_5
REMARK    5  A    between atoms: C_4  and  C_6
REMARK    6  A    between atoms: C_5  and  C_7
REMARK    7  A    between atoms: C_6  and  C_8
REMARK                            x       y       z     vdW  Elec       q    Type
REMARK                         _______ _______ _______ _____ _____    ______ ____
ROOT
ATOM      1  C   UNL     1       3.618   9.845   1.598  0.00  0.00    +0.000 C 
ATOM      2  H   UNL     1       2.540  10.000   1.727  0.00  0.00    +0.000 HD
ATOM      3  H   UNL     1       4.124  10.724   2.016  0.00  0.00    +0.000 HD
ENDROOT
BRANCH   1   4
ATOM      4  C   UNL     1       4.049   8.594   2.369  0.00  0.00    +0.000 C 
ATOM      5  H   UNL     1       3.472   7.728   2.020  0.00  0.00    +0.000 HD
ATOM      6  H   UNL     1       3.823   8.724   3.434  0.00  0.00    +0.000 HD
BRANCH   4   7
ATOM      7  C   UNL     1       5.542   8.316   2.188  0.00  0.00    +0.000 C 
ATOM      8  H   UNL     1       5.750   8.065   1.142  0.00  0.00    +0.000 HD
ATOM      9  H   UNL     1       6.119   9.216   2.428  0.00  0.00    +0.000 HD
BRANCH   7  10
ATOM     10  C   UNL     1       6.007   7.175   3.079  0.00  0.00    +0.000 C 
ATOM     11  H   UNL     1       5.238   6.909   3.811  0.00  0.00    +0.000 HD
ATOM     12  H   UNL     1       6.240   6.285   2.487  0.00  0.00    +0.000 HD
ATOM     13  H   UNL     1       6.910   7.466   3.626  0.00  0.00    +0.000 HD
ENDBRANCH   7  10
ENDBRANCH   4   7
ENDBRANCH   1   4
BRANCH   1  14
ATOM     14  C   UNL     1       3.955   9.722   0.110  0.00  0.00    +0.000 C 
ATOM     15  H   UNL     1       3.066   9.348  -0.414  0.00  0.00    +0.000 HD
ATOM     16  H   UNL     1       4.744   8.971  -0.020  0.00  0.00    +0.000 HD
BRANCH  14  17
ATOM     17  C   UNL     1       4.406  11.042  -0.534  0.00  0.00    +0.000 C 
ATOM     18  H   UNL     1       4.263  11.851   0.193  0.00  0.00    +0.000 HD
BRANCH  17  19
ATOM     19  C   UNL     1       5.844  11.016  -0.985  0.00  0.00    +0.000 C 
ATOM     20  C   UNL     1       6.923  10.884  -0.204  0.00  0.00    +0.000 C 
ATOM     21  H   UNL     1       6.010  11.129  -2.054  0.00  0.00    +0.000 HD
ATOM     22  H   UNL     1       7.917  10.885  -0.633  0.00  0.00    +0.000 HD
ATOM     23  H   UNL     1       6.829  10.773   0.871  0.00  0.00    +0.000 HD
ENDBRANCH  17  19
BRANCH  17  24
ATOM     24  O   UNL     1       3.539  11.317  -1.634  0.00  0.00    +0.000 OA
ATOM     25  H   UNL     1       2.934  10.562  -1.729  0.00  0.00    +0.000 HD
ENDBRANCH  17  24
ENDBRANCH  14  17
ENDBRANCH   1  14
TORSDOF 7
ENDMDL
MODEL 8
REMARK VINA RESULT:    -4.040     27.898     28.920
REMARK INTER + INTRA:          -5.774
REMARK INTER:                  -5.202
REMARK INTRA:                  -0.572
REMARK UNBOUND:                -0.317
REMARK  Name = 18827
REMARK  7 active torsions:
REMARK  status: ('A' for Active; 'I' for Inactive)
REMARK    1  A    between atoms: O_1  and  C_6
REMARK    2  A    between atoms: C_2  and  C_3
REMARK    3  A    between atoms: C_2  and  C_4
REMARK    4  A    between atoms: C_3  and  C_5
REMARK    5  A    between atoms: C_4  and  C_6
REMARK    6  A    between atoms: C_5  and  C_7
REMARK    7  A    between atoms: C_6  and  C_8
REMARK                            x       y       z     vdW  Elec       q    Type
REMARK                         _______ _______ _______ _____ _____    ______ ____
ROOT
ATOM      1  C   UNL     1     -20.313  -1.171   6.967  0.00  0.00    +0.000 C 
ATOM      2  H   UNL     1     -20.680  -2.202   6.897  0.00  0.00    +0.000 HD
ATOM      3  H   UNL     1     -19.240  -1.223   7.189  0.00  0.00    +0.000 HD
ENDROOT
BRANCH   1   4
ATOM      4  C   UNL     1     -20.521  -0.464   5.625  0.00  0.00    +0.000 C 
ATOM      5  H   UNL     1     -19.571  -0.038   5.280  0.00  0.00    +0.000 HD
ATOM      6  H   UNL     1     -21.219   0.372   5.757  0.00  0.00    +0.000 HD
BRANCH   4   7
ATOM      7  C   UNL     1     -21.062  -1.426   4.567  0.00  0.00    +0.000 C 
ATOM      8  H   UNL     1     -22.150  -1.324   4.492  0.00  0.00    +0.000 HD
ATOM      9  H   UNL     1     -20.643  -1.173   3.586  0.00  0.00    +0.000 HD
BRANCH   7  10
ATOM     10  C   UNL     1     -20.716  -2.869   4.898  0.00  0.00    +0.000 C 
ATOM     11  H   UNL     1     -20.095  -3.314   4.115  0.00  0.00    +0.000 HD
ATOM     12  H   UNL     1     -20.173  -2.934   5.847  0.00  0.00    +0.000 HD
ATOM     13  H   UNL     1     -21.630  -3.466   4.989  0.00  0.00    +0.000 HD
ENDBRANCH   7  10
ENDBRANCH   4   7
ENDBRANCH   1   4
BRANCH   1  14
ATOM     14  C   UNL     1     -21.032  -0.434   8.099  0.00  0.00    +0.000 C 
ATOM     15  H   UNL     1     -20.894   0.645   7.950  0.00  0.00    +0.000 HD
ATOM     16  H   UNL     1     -20.557  -0.689   9.055  0.00  0.00    +0.000 HD
BRANCH  14  17
ATOM     17  C   UNL     1     -22.534  -0.746   8.186  0.00  0.00    +0.000 C 
ATOM     18  H   UNL     1     -23.039  -0.265   7.338  0.00  0.00    +0.000 HD
BRANCH  17  19
ATOM     19  C   UNL     1     -22.830  -2.223   8.179  0.00  0.00    +0.000 C 
ATOM     20  C   UNL     1     -23.601  -2.878   7.301  0.00  0.00    +0.000 C 
ATOM     21  H   UNL     1     -22.376  -2.804   8.979  0.00  0.00    +0.000 HD
ATOM     22  H   UNL     1     -23.754  -3.947   7.393  0.00  0.00    +0.000 HD
ATOM     23  H   UNL     1     -24.088  -2.360   6.484  0.00  0.00    +0.000 HD
ENDBRANCH  17  19
BRANCH  17  24
ATOM     24  O   UNL     1     -23.046  -0.136   9.370  0.00  0.00    +0.000 OA
ATOM     25  H   UNL     1     -23.772   0.454   9.108  0.00  0.00    +0.000 HD
ENDBRANCH  17  24
ENDBRANCH  14  17
ENDBRANCH   1  14
TORSDOF 7
ENDMDL
MODEL 9
REMARK VINA RESULT:    -4.020      3.720      4.959
REMARK INTER + INTRA:          -5.747
REMARK INTER:                  -5.447
REMARK INTRA:                  -0.301
REMARK UNBOUND:                -0.317
REMARK  Name = 18827
REMARK  7 active torsions:
REMARK  status: ('A' for Active; 'I' for Inactive)
REMARK    1  A    between atoms: O_1  and  C_6
REMARK    2  A    between atoms: C_2  and  C_3
REMARK    3  A    between atoms: C_2  and  C_4
REMARK    4  A    between atoms: C_3  and  C_5
REMARK    5  A    between atoms: C_4  and  C_6
REMARK    6  A    between atoms: C_5  and  C_7
REMARK    7  A    between atoms: C_6  and  C_8
REMARK                            x       y       z     vdW  Elec       q    Type
REMARK                         _______ _______ _______ _____ _____    ______ ____
ROOT
ATOM      1  C   UNL     1       5.980   9.532   0.685  0.00  0.00    +0.000 C 
ATOM      2  H   UNL     1       6.212  10.516   0.259  0.00  0.00    +0.000 HD
ATOM      3  H   UNL     1       6.035   9.630   1.776  0.00  0.00    +0.000 HD
ENDROOT
BRANCH   1   4
ATOM      4  C   UNL     1       4.563   9.122   0.279  0.00  0.00    +0.000 C 
ATOM      5  H   UNL     1       4.027   8.731   1.153  0.00  0.00    +0.000 HD
ATOM      6  H   UNL     1       4.613   8.311  -0.457  0.00  0.00    +0.000 HD
BRANCH   4   7
ATOM      7  C   UNL     1       3.787  10.302  -0.306  0.00  0.00    +0.000 C 
ATOM      8  H   UNL     1       3.902  10.320  -1.396  0.00  0.00    +0.000 HD
ATOM      9  H   UNL     1       2.718  10.187  -0.093  0.00  0.00    +0.000 HD
BRANCH   7  10
ATOM     10  C   UNL     1       4.269  11.624   0.270  0.00  0.00    +0.000 C 
ATOM     11  H   UNL     1       3.491  12.096   0.877  0.00  0.00    +0.000 HD
ATOM     12  H   UNL     1       5.154  11.480   0.897  0.00  0.00    +0.000 HD
ATOM     13  H   UNL     1       4.535  12.315  -0.538  0.00  0.00    +0.000 HD
ENDBRANCH   7  10
ENDBRANCH   4   7
ENDBRANCH   1   4
BRANCH   1  14
ATOM     14  C   UNL     1       7.011   8.503   0.214  0.00  0.00    +0.000 C 
ATOM     15  H   UNL     1       6.601   7.500   0.392  0.00  0.00    +0.000 HD
ATOM     16  H   UNL     1       7.917   8.593   0.828  0.00  0.00    +0.000 HD
BRANCH  14  17
ATOM     17  C   UNL     1       7.392   8.640  -1.267  0.00  0.00    +0.000 C 
ATOM     18  H   UNL     1       6.473   8.619  -1.867  0.00  0.00    +0.000 HD
BRANCH  17  19
ATOM     19  C   UNL     1       8.161   9.901  -1.564  0.00  0.00    +0.000 C 
ATOM     20  C   UNL     1       9.414  10.180  -1.183  0.00  0.00    +0.000 C 
ATOM     21  H   UNL     1       7.631  10.659  -2.136  0.00  0.00    +0.000 HD
ATOM     22  H   UNL     1       9.872  11.126  -1.446  0.00  0.00    +0.000 HD
ATOM     23  H   UNL     1       9.997   9.472  -0.605  0.00  0.00    +0.000 HD
ENDBRANCH  17  19
BRANCH  17  24
ATOM     24  O   UNL     1       8.153   7.489  -1.638  0.00  0.00    +0.000 OA
ATOM     25  H   UNL     1       7.701   6.708  -1.277  0.00  0.00    +0.000 HD
ENDBRANCH  17  24
ENDBRANCH  14  17
ENDBRANCH   1  14
TORSDOF 7
ENDMDL
MODEL 10
REMARK VINA RESULT:    -3.996      3.063      3.449
REMARK INTER + INTRA:          -5.715
REMARK INTER:                  -5.398
REMARK INTRA:                  -0.317
REMARK UNBOUND:                -0.317
REMARK  Name = 18827
REMARK  7 active torsions:
REMARK  status: ('A' for Active; 'I' for Inactive)
REMARK    1  A    between atoms: O_1  and  C_6
REMARK    2  A    between atoms: C_2  and  C_3
REMARK    3  A    between atoms: C_2  and  C_4
REMARK    4  A    between atoms: C_3  and  C_5
REMARK    5  A    between atoms: C_4  and  C_6
REMARK    6  A    between atoms: C_5  and  C_7
REMARK    7  A    between atoms: C_6  and  C_8
REMARK                            x       y       z     vdW  Elec       q    Type
REMARK                         _______ _______ _______ _____ _____    ______ ____
ROOT
ATOM      1  C   UNL     1       7.454   8.754   2.641  0.00  0.00    +0.000 C 
ATOM      2  H   UNL     1       7.193   9.485   3.417  0.00  0.00    +0.000 HD
ATOM      3  H   UNL     1       8.195   8.072   3.075  0.00  0.00    +0.000 HD
ENDROOT
BRANCH   1   4
ATOM      4  C   UNL     1       6.205   7.965   2.242  0.00  0.00    +0.000 C 
ATOM      5  H   UNL     1       6.298   7.627   1.202  0.00  0.00    +0.000 HD
ATOM      6  H   UNL     1       5.327   8.619   2.291  0.00  0.00    +0.000 HD
BRANCH   4   7
ATOM      7  C   UNL     1       5.997   6.754   3.153  0.00  0.00    +0.000 C 
ATOM      8  H   UNL     1       4.983   6.360   3.024  0.00  0.00    +0.000 HD
ATOM      9  H   UNL     1       6.694   5.955   2.875  0.00  0.00    +0.000 HD
BRANCH   7  10
ATOM     10  C   UNL     1       6.212   7.114   4.615  0.00  0.00    +0.000 C 
ATOM     11  H   UNL     1       7.203   7.550   4.770  0.00  0.00    +0.000 HD
ATOM     12  H   UNL     1       5.462   7.835   4.956  0.00  0.00    +0.000 HD
ATOM     13  H   UNL     1       6.133   6.219   5.241  0.00  0.00    +0.000 HD
ENDBRANCH   7  10
ENDBRANCH   4   7
ENDBRANCH   1   4
BRANCH   1  14
ATOM     14  C   UNL     1       8.066   9.470   1.434  0.00  0.00    +0.000 C 
ATOM     15  H   UNL     1       9.132   9.211   1.386  0.00  0.00    +0.000 HD
ATOM     16  H   UNL     1       8.006  10.555   1.589  0.00  0.00    +0.000 HD
BRANCH  14  17
ATOM     17  C   UNL     1       7.396   9.115   0.098  0.00  0.00    +0.000 C 
ATOM     18  H   UNL     1       6.518   8.490   0.304  0.00  0.00    +0.000 HD
BRANCH  17  19
ATOM     19  C   UNL     1       6.980  10.328  -0.693  0.00  0.00    +0.000 C 
ATOM     20  C   UNL     1       6.378  11.425  -0.215  0.00  0.00    +0.000 C 
ATOM     21  H   UNL     1       7.185  10.294  -1.761  0.00  0.00    +0.000 HD
ATOM     22  H   UNL     1       6.115  12.241  -0.876  0.00  0.00    +0.000 HD
ATOM     23  H   UNL     1       6.140  11.521   0.839  0.00  0.00    +0.000 HD
ENDBRANCH  17  19
BRANCH  17  24
ATOM     24  O   UNL     1       8.306   8.312  -0.654  0.00  0.00    +0.000 OA
ATOM     25  H   UNL     1       9.003   8.896  -0.995  0.00  0.00    +0.000 HD
ENDBRANCH  17  24
ENDBRANCH  14  17
ENDBRANCH   1  14
TORSDOF 7
ENDMDL
