MODEL 1
REMARK VINA RESULT:    -4.930      0.000      0.000
REMARK INTER + INTRA:          -6.472
REMARK INTER:                  -6.168
REMARK INTRA:                  -0.304
REMARK UNBOUND:                -0.245
REMARK  Name = 32594
REMARK  6 active torsions:
REMARK  status: ('A' for Active; 'I' for Inactive)
REMARK    1  A    between atoms: O_1  and  C_9
REMARK    2  A    between atoms: O_1  and  C_12
REMARK    3  A    between atoms: C_4  and  C_5
REMARK    4  A    between atoms: C_4  and  C_6
REMARK    5  A    between atoms: C_4  and  C_7
REMARK    6  A    between atoms: C_5  and  C_8
REMARK                            x       y       z     vdW  Elec       q    Type
REMARK                         _______ _______ _______ _____ _____    ______ ____
ROOT
ATOM      1  C   UNL     1       6.168   9.141  -0.085  0.00  0.00    +0.000 C 
ATOM      2  H   UNL     1       6.681   8.170  -0.097  0.00  0.00    +0.000 HD
ATOM      3  H   UNL     1       5.590   9.170  -1.018  0.00  0.00    +0.000 HD
ENDROOT
BRANCH   1   6
ATOM      4  N   UNL     1       5.658   8.552   2.204  0.00  0.00    +0.000 NA
ATOM      5  N   UNL     1       3.184   9.866   2.063  0.00  0.00    +0.000 NA
ATOM      6  C   UNL     1       5.234   9.179   1.099  0.00  0.00    +0.000 A 
ATOM      7  C   UNL     1       4.030   9.824   1.016  0.00  0.00    +0.000 A 
ATOM      8  C   UNL     1       4.811   8.594   3.252  0.00  0.00    +0.000 A 
ATOM      9  C   UNL     1       3.596   9.240   3.184  0.00  0.00    +0.000 A 
ATOM     10  H   UNL     1       5.143   8.091   4.152  0.00  0.00    +0.000 HD
ATOM     11  H   UNL     1       2.917   9.274   4.026  0.00  0.00    +0.000 HD
BRANCH   7  12
ATOM     12  O   UNL     1       3.633  10.453  -0.131  0.00  0.00    +0.000 OA
BRANCH  12  13
ATOM     13  C   UNL     1       3.425  11.860  -0.054  0.00  0.00    +0.000 C 
ATOM     14  H   UNL     1       3.463  12.206   0.985  0.00  0.00    +0.000 HD
ATOM     15  H   UNL     1       2.477  12.143  -0.525  0.00  0.00    +0.000 HD
ATOM     16  H   UNL     1       4.235  12.350  -0.602  0.00  0.00    +0.000 HD
ENDBRANCH  12  13
ENDBRANCH   7  12
ENDBRANCH   1   6
BRANCH   1  17
ATOM     17  C   UNL     1       7.213  10.273  -0.091  0.00  0.00    +0.000 C 
ATOM     18  H   UNL     1       7.098  10.847   0.837  0.00  0.00    +0.000 HD
BRANCH  17  19
ATOM     19  C   UNL     1       8.644   9.733  -0.161  0.00  0.00    +0.000 C 
ATOM     20  H   UNL     1       9.053   9.740  -1.177  0.00  0.00    +0.000 HD
ATOM     21  H   UNL     1       8.702   8.719   0.244  0.00  0.00    +0.000 HD
ATOM     22  H   UNL     1       9.306  10.359   0.449  0.00  0.00    +0.000 HD
ENDBRANCH  17  19
BRANCH  17  23
ATOM     23  C   UNL     1       6.957  11.210  -1.274  0.00  0.00    +0.000 C 
ATOM     24  H   UNL     1       6.190  10.784  -1.931  0.00  0.00    +0.000 HD
ATOM     25  H   UNL     1       6.600  12.195  -0.958  0.00  0.00    +0.000 HD
ATOM     26  H   UNL     1       7.864  11.345  -1.874  0.00  0.00    +0.000 HD
ENDBRANCH  17  23
ENDBRANCH   1  17
TORSDOF 6
ENDMDL
MODEL 2
REMARK VINA RESULT:    -4.882      1.607      3.129
REMARK INTER + INTRA:          -6.412
REMARK INTER:                  -6.174
REMARK INTRA:                  -0.237
REMARK UNBOUND:                -0.245
REMARK  Name = 32594
REMARK  6 active torsions:
REMARK  status: ('A' for Active; 'I' for Inactive)
REMARK    1  A    between atoms: O_1  and  C_9
REMARK    2  A    between atoms: O_1  and  C_12
REMARK    3  A    between atoms: C_4  and  C_5
REMARK    4  A    between atoms: C_4  and  C_6
REMARK    5  A    between atoms: C_4  and  C_7
REMARK    6  A    between atoms: C_5  and  C_8
REMARK                            x       y       z     vdW  Elec       q    Type
REMARK                         _______ _______ _______ _____ _____    ______ ____
ROOT
ATOM      1  C   UNL     1       3.729   9.503   0.148  0.00  0.00    +0.000 C 
ATOM      2  H   UNL     1       4.453   9.067  -0.554  0.00  0.00    +0.000 HD
ATOM      3  H   UNL     1       2.785   8.982  -0.055  0.00  0.00    +0.000 HD
ENDROOT
BRANCH   1   6
ATOM      4  N   UNL     1       3.341   9.562   2.534  0.00  0.00    +0.000 NA
ATOM      5  N   UNL     1       5.823   8.356   3.037  0.00  0.00    +0.000 NA
ATOM      6  C   UNL     1       4.186   9.211   1.556  0.00  0.00    +0.000 A 
ATOM      7  C   UNL     1       5.399   8.623   1.786  0.00  0.00    +0.000 A 
ATOM      8  C   UNL     1       3.764   9.296   3.786  0.00  0.00    +0.000 A 
ATOM      9  C   UNL     1       4.983   8.703   4.033  0.00  0.00    +0.000 A 
ATOM     10  H   UNL     1       3.089   9.574   4.586  0.00  0.00    +0.000 HD
ATOM     11  H   UNL     1       5.322   8.488   5.039  0.00  0.00    +0.000 HD
BRANCH   7  12
ATOM     12  O   UNL     1       6.234   8.279   0.760  0.00  0.00    +0.000 OA
BRANCH  12  13
ATOM     13  C   UNL     1       7.481   8.965   0.688  0.00  0.00    +0.000 C 
ATOM     14  H   UNL     1       7.778   9.130  -0.354  0.00  0.00    +0.000 HD
ATOM     15  H   UNL     1       8.260   8.421   1.234  0.00  0.00    +0.000 HD
ATOM     16  H   UNL     1       7.354   9.943   1.162  0.00  0.00    +0.000 HD
ENDBRANCH  12  13
ENDBRANCH   7  12
ENDBRANCH   1   6
BRANCH   1  17
ATOM     17  C   UNL     1       3.566  11.006  -0.155  0.00  0.00    +0.000 C 
ATOM     18  H   UNL     1       2.745  11.390   0.463  0.00  0.00    +0.000 HD
BRANCH  17  19
ATOM     19  C   UNL     1       4.836  11.797   0.165  0.00  0.00    +0.000 C 
ATOM     20  H   UNL     1       5.739  11.347  -0.262  0.00  0.00    +0.000 HD
ATOM     21  H   UNL     1       4.967  11.912   1.245  0.00  0.00    +0.000 HD
ATOM     22  H   UNL     1       4.759  12.806  -0.256  0.00  0.00    +0.000 HD
ENDBRANCH  17  19
BRANCH  17  23
ATOM     23  C   UNL     1       3.195  11.200  -1.627  0.00  0.00    +0.000 C 
ATOM     24  H   UNL     1       2.720  10.294  -2.018  0.00  0.00    +0.000 HD
ATOM     25  H   UNL     1       2.489  12.024  -1.775  0.00  0.00    +0.000 HD
ATOM     26  H   UNL     1       4.085  11.392  -2.237  0.00  0.00    +0.000 HD
ENDBRANCH  17  23
ENDBRANCH   1  17
TORSDOF 6
ENDMDL
MODEL 3
REMARK VINA RESULT:    -4.804      1.806      4.227
REMARK INTER + INTRA:          -6.314
REMARK INTER:                  -6.155
REMARK INTRA:                  -0.159
REMARK UNBOUND:                -0.245
REMARK  Name = 32594
REMARK  6 active torsions:
REMARK  status: ('A' for Active; 'I' for Inactive)
REMARK    1  A    between atoms: O_1  and  C_9
REMARK    2  A    between atoms: O_1  and  C_12
REMARK    3  A    between atoms: C_4  and  C_5
REMARK    4  A    between atoms: C_4  and  C_6
REMARK    5  A    between atoms: C_4  and  C_7
REMARK    6  A    between atoms: C_5  and  C_8
REMARK                            x       y       z     vdW  Elec       q    Type
REMARK                         _______ _______ _______ _____ _____    ______ ____
ROOT
ATOM      1  C   UNL     1       3.871   8.305   2.232  0.00  0.00    +0.000 C 
ATOM      2  H   UNL     1       2.895   8.413   2.724  0.00  0.00    +0.000 HD
ATOM      3  H   UNL     1       3.800   7.373   1.657  0.00  0.00    +0.000 HD
ENDROOT
BRANCH   1   6
ATOM      4  N   UNL     1       3.262  10.521   1.481  0.00  0.00    +0.000 NA
ATOM      5  N   UNL     1       5.232  10.461  -0.514  0.00  0.00    +0.000 NA
ATOM      6  C   UNL     1       4.074   9.472   1.298  0.00  0.00    +0.000 A 
ATOM      7  C   UNL     1       5.039   9.428   0.330  0.00  0.00    +0.000 A 
ATOM      8  C   UNL     1       3.454  11.554   0.637  0.00  0.00    +0.000 A 
ATOM      9  C   UNL     1       4.422  11.526  -0.343  0.00  0.00    +0.000 A 
ATOM     10  H   UNL     1       2.804  12.409   0.775  0.00  0.00    +0.000 HD
ATOM     11  H   UNL     1       4.577  12.356  -1.020  0.00  0.00    +0.000 HD
BRANCH   7  12
ATOM     12  O   UNL     1       5.849   8.338   0.175  0.00  0.00    +0.000 OA
BRANCH  12  13
ATOM     13  C   UNL     1       7.253   8.580   0.142  0.00  0.00    +0.000 C 
ATOM     14  H   UNL     1       7.705   8.399   1.123  0.00  0.00    +0.000 HD
ATOM     15  H   UNL     1       7.468   9.596  -0.206  0.00  0.00    +0.000 HD
ATOM     16  H   UNL     1       7.698   7.877  -0.569  0.00  0.00    +0.000 HD
ENDBRANCH  12  13
ENDBRANCH   7  12
ENDBRANCH   1   6
BRANCH   1  17
ATOM     17  C   UNL     1       4.971   8.167   3.303  0.00  0.00    +0.000 C 
ATOM     18  H   UNL     1       5.897   8.593   2.898  0.00  0.00    +0.000 HD
BRANCH  17  19
ATOM     19  C   UNL     1       4.612   8.906   4.594  0.00  0.00    +0.000 C 
ATOM     20  H   UNL     1       5.405   9.580   4.935  0.00  0.00    +0.000 HD
ATOM     21  H   UNL     1       4.367   8.203   5.395  0.00  0.00    +0.000 HD
ATOM     22  H   UNL     1       3.722   9.526   4.430  0.00  0.00    +0.000 HD
ENDBRANCH  17  19
BRANCH  17  23
ATOM     23  C   UNL     1       5.214   6.687   3.609  0.00  0.00    +0.000 C 
ATOM     24  H   UNL     1       6.289   6.479   3.633  0.00  0.00    +0.000 HD
ATOM     25  H   UNL     1       4.805   6.387   4.579  0.00  0.00    +0.000 HD
ATOM     26  H   UNL     1       4.775   6.046   2.835  0.00  0.00    +0.000 HD
ENDBRANCH  17  23
ENDBRANCH   1  17
TORSDOF 6
ENDMDL
MODEL 4
REMARK VINA RESULT:    -4.619      1.885      3.776
REMARK INTER + INTRA:          -6.080
REMARK INTER:                  -5.917
REMARK INTRA:                  -0.162
REMARK UNBOUND:                -0.245
REMARK  Name = 32594
REMARK  6 active torsions:
REMARK  status: ('A' for Active; 'I' for Inactive)
REMARK    1  A    between atoms: O_1  and  C_9
REMARK    2  A    between atoms: O_1  and  C_12
REMARK    3  A    between atoms: C_4  and  C_5
REMARK    4  A    between atoms: C_4  and  C_6
REMARK    5  A    between atoms: C_4  and  C_7
REMARK    6  A    between atoms: C_5  and  C_8
REMARK                            x       y       z     vdW  Elec       q    Type
REMARK                         _______ _______ _______ _____ _____    ______ ____
ROOT
ATOM      1  C   UNL     1       5.266   8.636   1.930  0.00  0.00    +0.000 C 
ATOM      2  H   UNL     1       4.836   9.387   2.607  0.00  0.00    +0.000 HD
ATOM      3  H   UNL     1       4.413   8.035   1.589  0.00  0.00    +0.000 HD
ENDROOT
BRANCH   1   6
ATOM      4  N   UNL     1       6.907   8.713   0.155  0.00  0.00    +0.000 NA
ATOM      5  N   UNL     1       5.982  11.224  -0.684  0.00  0.00    +0.000 NA
ATOM      6  C   UNL     1       5.894   9.349   0.757  0.00  0.00    +0.000 A 
ATOM      7  C   UNL     1       5.432  10.573   0.359  0.00  0.00    +0.000 A 
ATOM      8  C   UNL     1       7.458   9.364  -0.890  0.00  0.00    +0.000 A 
ATOM      9  C   UNL     1       7.003  10.597  -1.302  0.00  0.00    +0.000 A 
ATOM     10  H   UNL     1       8.277   8.860  -1.386  0.00  0.00    +0.000 HD
ATOM     11  H   UNL     1       7.445  11.119  -2.142  0.00  0.00    +0.000 HD
BRANCH   7  12
ATOM     12  O   UNL     1       4.395  11.191   1.001  0.00  0.00    +0.000 OA
BRANCH  12  13
ATOM     13  C   UNL     1       3.356  11.720   0.183  0.00  0.00    +0.000 C 
ATOM     14  H   UNL     1       3.763  12.154  -0.737  0.00  0.00    +0.000 HD
ATOM     15  H   UNL     1       2.760  12.457   0.732  0.00  0.00    +0.000 HD
ATOM     16  H   UNL     1       2.696  10.893  -0.099  0.00  0.00    +0.000 HD
ENDBRANCH  12  13
ENDBRANCH   7  12
ENDBRANCH   1   6
BRANCH   1  17
ATOM     17  C   UNL     1       6.248   7.743   2.713  0.00  0.00    +0.000 C 
ATOM     18  H   UNL     1       6.857   7.189   1.988  0.00  0.00    +0.000 HD
BRANCH  17  19
ATOM     19  C   UNL     1       7.176   8.561   3.614  0.00  0.00    +0.000 C 
ATOM     20  H   UNL     1       6.635   9.258   4.263  0.00  0.00    +0.000 HD
ATOM     21  H   UNL     1       7.911   9.115   3.022  0.00  0.00    +0.000 HD
ATOM     22  H   UNL     1       7.739   7.890   4.273  0.00  0.00    +0.000 HD
ENDBRANCH  17  19
BRANCH  17  23
ATOM     23  C   UNL     1       5.468   6.734   3.559  0.00  0.00    +0.000 C 
ATOM     24  H   UNL     1       4.935   7.251   4.365  0.00  0.00    +0.000 HD
ATOM     25  H   UNL     1       4.719   6.189   2.975  0.00  0.00    +0.000 HD
ATOM     26  H   UNL     1       6.140   6.006   4.027  0.00  0.00    +0.000 HD
ENDBRANCH  17  23
ENDBRANCH   1  17
TORSDOF 6
ENDMDL
MODEL 5
REMARK VINA RESULT:    -4.392     28.603     30.066
REMARK INTER + INTRA:          -5.792
REMARK INTER:                  -5.583
REMARK INTRA:                  -0.209
REMARK UNBOUND:                -0.245
REMARK  Name = 32594
REMARK  6 active torsions:
REMARK  status: ('A' for Active; 'I' for Inactive)
REMARK    1  A    between atoms: O_1  and  C_9
REMARK    2  A    between atoms: O_1  and  C_12
REMARK    3  A    between atoms: C_4  and  C_5
REMARK    4  A    between atoms: C_4  and  C_6
REMARK    5  A    between atoms: C_4  and  C_7
REMARK    6  A    between atoms: C_5  and  C_8
REMARK                            x       y       z     vdW  Elec       q    Type
REMARK                         _______ _______ _______ _____ _____    ______ ____
ROOT
ATOM      1  C   UNL     1     -21.040  -2.631   6.666  0.00  0.00    +0.000 C 
ATOM      2  H   UNL     1     -21.438  -3.120   7.565  0.00  0.00    +0.000 HD
ATOM      3  H   UNL     1     -19.950  -2.746   6.737  0.00  0.00    +0.000 HD
ENDROOT
BRANCH   1   6
ATOM      4  N   UNL     1     -22.785  -3.026   5.039  0.00  0.00    +0.000 NA
ATOM      5  N   UNL     1     -21.233  -4.971   3.745  0.00  0.00    +0.000 NA
ATOM      6  C   UNL     1     -21.556  -3.362   5.451  0.00  0.00    +0.000 A 
ATOM      7  C   UNL     1     -20.787  -4.308   4.830  0.00  0.00    +0.000 A 
ATOM      8  C   UNL     1     -23.232  -3.689   3.954  0.00  0.00    +0.000 A 
ATOM      9  C   UNL     1     -22.470  -4.644   3.318  0.00  0.00    +0.000 A 
ATOM     10  H   UNL     1     -24.225  -3.426   3.611  0.00  0.00    +0.000 HD
ATOM     11  H   UNL     1     -22.829  -5.176   2.445  0.00  0.00    +0.000 HD
BRANCH   7  12
ATOM     12  O   UNL     1     -19.536  -4.623   5.281  0.00  0.00    +0.000 OA
BRANCH  12  13
ATOM     13  C   UNL     1     -18.793  -5.565   4.512  0.00  0.00    +0.000 C 
ATOM     14  H   UNL     1     -18.282  -5.074   3.678  0.00  0.00    +0.000 HD
ATOM     15  H   UNL     1     -19.439  -6.374   4.153  0.00  0.00    +0.000 HD
ATOM     16  H   UNL     1     -18.031  -6.004   5.164  0.00  0.00    +0.000 HD
ENDBRANCH  12  13
ENDBRANCH   7  12
ENDBRANCH   1   6
BRANCH   1  17
ATOM     17  C   UNL     1     -21.404  -1.134   6.694  0.00  0.00    +0.000 C 
ATOM     18  H   UNL     1     -22.397  -1.017   6.243  0.00  0.00    +0.000 HD
BRANCH  17  19
ATOM     19  C   UNL     1     -21.441  -0.578   8.119  0.00  0.00    +0.000 C 
ATOM     20  H   UNL     1     -22.026  -1.199   8.804  0.00  0.00    +0.000 HD
ATOM     21  H   UNL     1     -21.833   0.443   8.132  0.00  0.00    +0.000 HD
ATOM     22  H   UNL     1     -20.423  -0.534   8.525  0.00  0.00    +0.000 HD
ENDBRANCH  17  19
BRANCH  17  23
ATOM     23  C   UNL     1     -20.397  -0.341   5.857  0.00  0.00    +0.000 C 
ATOM     24  H   UNL     1     -20.892   0.081   4.975  0.00  0.00    +0.000 HD
ATOM     25  H   UNL     1     -19.959   0.495   6.411  0.00  0.00    +0.000 HD
ATOM     26  H   UNL     1     -19.585  -0.984   5.500  0.00  0.00    +0.000 HD
ENDBRANCH  17  23
ENDBRANCH   1  17
TORSDOF 6
ENDMDL
MODEL 6
REMARK VINA RESULT:    -4.377     14.271     15.630
REMARK INTER + INTRA:          -5.773
REMARK INTER:                  -5.638
REMARK INTRA:                  -0.136
REMARK UNBOUND:                -0.245
REMARK  Name = 32594
REMARK  6 active torsions:
REMARK  status: ('A' for Active; 'I' for Inactive)
REMARK    1  A    between atoms: O_1  and  C_9
REMARK    2  A    between atoms: O_1  and  C_12
REMARK    3  A    between atoms: C_4  and  C_5
REMARK    4  A    between atoms: C_4  and  C_6
REMARK    5  A    between atoms: C_4  and  C_7
REMARK    6  A    between atoms: C_5  and  C_8
REMARK                            x       y       z     vdW  Elec       q    Type
REMARK                         _______ _______ _______ _____ _____    ______ ____
ROOT
ATOM      1  C   UNL     1      -2.042   6.742 -11.202  0.00  0.00    +0.000 C 
ATOM      2  H   UNL     1      -2.185   5.669 -11.389  0.00  0.00    +0.000 HD
ATOM      3  H   UNL     1      -1.211   6.799 -10.486  0.00  0.00    +0.000 HD
ENDROOT
BRANCH   1   6
ATOM      4  N   UNL     1      -2.123   6.847 -13.617  0.00  0.00    +0.000 NA
ATOM      5  N   UNL     1      -0.497   9.132 -13.641  0.00  0.00    +0.000 NA
ATOM      6  C   UNL     1      -1.651   7.410 -12.497  0.00  0.00    +0.000 A 
ATOM      7  C   UNL     1      -0.857   8.524 -12.493  0.00  0.00    +0.000 A 
ATOM      8  C   UNL     1      -1.763   7.454 -14.765  0.00  0.00    +0.000 A 
ATOM      9  C   UNL     1      -0.965   8.577 -14.777  0.00  0.00    +0.000 A 
ATOM     10  H   UNL     1      -2.140   7.009 -15.678  0.00  0.00    +0.000 HD
ATOM     11  H   UNL     1      -0.677   9.065 -15.700  0.00  0.00    +0.000 HD
BRANCH   7  12
ATOM     12  O   UNL     1      -0.394   9.070 -11.328  0.00  0.00    +0.000 OA
BRANCH  12  13
ATOM     13  C   UNL     1      -1.044  10.251 -10.869  0.00  0.00    +0.000 C 
ATOM     14  H   UNL     1      -0.512  10.685 -10.016  0.00  0.00    +0.000 HD
ATOM     15  H   UNL     1      -2.091  10.050 -10.614  0.00  0.00    +0.000 HD
ATOM     16  H   UNL     1      -1.029  10.982 -11.683  0.00  0.00    +0.000 HD
ENDBRANCH  12  13
ENDBRANCH   7  12
ENDBRANCH   1   6
BRANCH   1  17
ATOM     17  C   UNL     1      -3.317   7.324 -10.562  0.00  0.00    +0.000 C 
ATOM     18  H   UNL     1      -3.277   8.416 -10.655  0.00  0.00    +0.000 HD
BRANCH  17  19
ATOM     19  C   UNL     1      -4.587   6.817 -11.248  0.00  0.00    +0.000 C 
ATOM     20  H   UNL     1      -5.231   6.235 -10.579  0.00  0.00    +0.000 HD
ATOM     21  H   UNL     1      -4.345   6.215 -12.129  0.00  0.00    +0.000 HD
ATOM     22  H   UNL     1      -5.184   7.667 -11.598  0.00  0.00    +0.000 HD
ENDBRANCH  17  19
BRANCH  17  23
ATOM     23  C   UNL     1      -3.358   6.968  -9.074  0.00  0.00    +0.000 C 
ATOM     24  H   UNL     1      -2.539   7.467  -8.545  0.00  0.00    +0.000 HD
ATOM     25  H   UNL     1      -4.291   7.282  -8.594  0.00  0.00    +0.000 HD
ATOM     26  H   UNL     1      -3.236   5.889  -8.921  0.00  0.00    +0.000 HD
ENDBRANCH  17  23
ENDBRANCH   1  17
TORSDOF 6
ENDMDL
MODEL 7
REMARK VINA RESULT:    -4.353     28.868     29.825
REMARK INTER + INTRA:          -5.743
REMARK INTER:                  -5.462
REMARK INTRA:                  -0.281
REMARK UNBOUND:                -0.245
REMARK  Name = 32594
REMARK  6 active torsions:
REMARK  status: ('A' for Active; 'I' for Inactive)
REMARK    1  A    between atoms: O_1  and  C_9
REMARK    2  A    between atoms: O_1  and  C_12
REMARK    3  A    between atoms: C_4  and  C_5
REMARK    4  A    between atoms: C_4  and  C_6
REMARK    5  A    between atoms: C_4  and  C_7
REMARK    6  A    between atoms: C_5  and  C_8
REMARK                            x       y       z     vdW  Elec       q    Type
REMARK                         _______ _______ _______ _____ _____    ______ ____
ROOT
ATOM      1  C   UNL     1     -21.300  -3.232   6.158  0.00  0.00    +0.000 C 
ATOM      2  H   UNL     1     -22.351  -3.018   5.921  0.00  0.00    +0.000 HD
ATOM      3  H   UNL     1     -21.325  -3.749   7.126  0.00  0.00    +0.000 HD
ENDROOT
BRANCH   1   6
ATOM      4  N   UNL     1     -19.501  -4.605   5.305  0.00  0.00    +0.000 NA
ATOM      5  N   UNL     1     -21.011  -5.300   3.046  0.00  0.00    +0.000 NA
ATOM      6  C   UNL     1     -20.744  -4.151   5.099  0.00  0.00    +0.000 A 
ATOM      7  C   UNL     1     -21.492  -4.481   4.002  0.00  0.00    +0.000 A 
ATOM      8  C   UNL     1     -19.019  -5.423   4.349  0.00  0.00    +0.000 A 
ATOM      9  C   UNL     1     -19.760  -5.765   3.240  0.00  0.00    +0.000 A 
ATOM     10  H   UNL     1     -18.015  -5.798   4.505  0.00  0.00    +0.000 HD
ATOM     11  H   UNL     1     -19.373  -6.424   2.472  0.00  0.00    +0.000 HD
BRANCH   7  12
ATOM     12  O   UNL     1     -22.759  -3.998   3.827  0.00  0.00    +0.000 OA
BRANCH  12  13
ATOM     13  C   UNL     1     -22.960  -3.099   2.740  0.00  0.00    +0.000 C 
ATOM     14  H   UNL     1     -22.061  -2.504   2.552  0.00  0.00    +0.000 HD
ATOM     15  H   UNL     1     -23.826  -2.453   2.921  0.00  0.00    +0.000 HD
ATOM     16  H   UNL     1     -23.164  -3.695   1.845  0.00  0.00    +0.000 HD
ENDBRANCH  12  13
ENDBRANCH   7  12
ENDBRANCH   1   6
BRANCH   1  17
ATOM     17  C   UNL     1     -20.527  -1.906   6.300  0.00  0.00    +0.000 C 
ATOM     18  H   UNL     1     -19.456  -2.140   6.351  0.00  0.00    +0.000 HD
BRANCH  17  19
ATOM     19  C   UNL     1     -20.771  -0.969   5.115  0.00  0.00    +0.000 C 
ATOM     20  H   UNL     1     -21.794  -0.580   5.083  0.00  0.00    +0.000 HD
ATOM     21  H   UNL     1     -20.545  -1.466   4.167  0.00  0.00    +0.000 HD
ATOM     22  H   UNL     1     -20.106  -0.101   5.187  0.00  0.00    +0.000 HD
ENDBRANCH  17  19
BRANCH  17  23
ATOM     23  C   UNL     1     -20.931  -1.208   7.601  0.00  0.00    +0.000 C 
ATOM     24  H   UNL     1     -20.097  -1.225   8.311  0.00  0.00    +0.000 HD
ATOM     25  H   UNL     1     -21.201  -0.159   7.446  0.00  0.00    +0.000 HD
ATOM     26  H   UNL     1     -21.777  -1.717   8.077  0.00  0.00    +0.000 HD
ENDBRANCH  17  23
ENDBRANCH   1  17
TORSDOF 6
ENDMDL
MODEL 8
REMARK VINA RESULT:    -4.319     13.776     15.156
REMARK INTER + INTRA:          -5.701
REMARK INTER:                  -5.537
REMARK INTRA:                  -0.164
REMARK UNBOUND:                -0.245
REMARK  Name = 32594
REMARK  6 active torsions:
REMARK  status: ('A' for Active; 'I' for Inactive)
REMARK    1  A    between atoms: O_1  and  C_9
REMARK    2  A    between atoms: O_1  and  C_12
REMARK    3  A    between atoms: C_4  and  C_5
REMARK    4  A    between atoms: C_4  and  C_6
REMARK    5  A    between atoms: C_4  and  C_7
REMARK    6  A    between atoms: C_5  and  C_8
REMARK                            x       y       z     vdW  Elec       q    Type
REMARK                         _______ _______ _______ _____ _____    ______ ____
ROOT
ATOM      1  C   UNL     1      -3.450   7.271 -10.960  0.00  0.00    +0.000 C 
ATOM      2  H   UNL     1      -4.434   7.735 -11.115  0.00  0.00    +0.000 HD
ATOM      3  H   UNL     1      -3.524   6.281 -11.429  0.00  0.00    +0.000 HD
ENDROOT
BRANCH   1   6
ATOM      4  N   UNL     1      -1.201   7.536 -11.809  0.00  0.00    +0.000 NA
ATOM      5  N   UNL     1      -1.793  10.104 -12.768  0.00  0.00    +0.000 NA
ATOM      6  C   UNL     1      -2.408   8.099 -11.671  0.00  0.00    +0.000 A 
ATOM      7  C   UNL     1      -2.711   9.350 -12.133  0.00  0.00    +0.000 A 
ATOM      8  C   UNL     1      -0.281   8.290 -12.444  0.00  0.00    +0.000 A 
ATOM      9  C   UNL     1      -0.572   9.551 -12.916  0.00  0.00    +0.000 A 
ATOM     10  H   UNL     1       0.699   7.845 -12.563  0.00  0.00    +0.000 HD
ATOM     11  H   UNL     1       0.167  10.156 -13.427  0.00  0.00    +0.000 HD
BRANCH   7  12
ATOM     12  O   UNL     1      -3.957   9.891 -11.973  0.00  0.00    +0.000 OA
BRANCH  12  13
ATOM     13  C   UNL     1      -4.700  10.156 -13.159  0.00  0.00    +0.000 C 
ATOM     14  H   UNL     1      -5.663   9.634 -13.143  0.00  0.00    +0.000 HD
ATOM     15  H   UNL     1      -4.125   9.887 -14.051  0.00  0.00    +0.000 HD
ATOM     16  H   UNL     1      -4.901  11.231 -13.196  0.00  0.00    +0.000 HD
ENDBRANCH  12  13
ENDBRANCH   7  12
ENDBRANCH   1   6
BRANCH   1  17
ATOM     17  C   UNL     1      -3.193   7.110  -9.449  0.00  0.00    +0.000 C 
ATOM     18  H   UNL     1      -2.311   6.471  -9.320  0.00  0.00    +0.000 HD
BRANCH  17  19
ATOM     19  C   UNL     1      -2.934   8.453  -8.764  0.00  0.00    +0.000 C 
ATOM     20  H   UNL     1      -3.085   8.416  -7.680  0.00  0.00    +0.000 HD
ATOM     21  H   UNL     1      -3.564   9.240  -9.189  0.00  0.00    +0.000 HD
ATOM     22  H   UNL     1      -1.892   8.756  -8.926  0.00  0.00    +0.000 HD
ENDBRANCH  17  19
BRANCH  17  23
ATOM     23  C   UNL     1      -4.390   6.419  -8.791  0.00  0.00    +0.000 C 
ATOM     24  H   UNL     1      -5.323   6.770  -9.245  0.00  0.00    +0.000 HD
ATOM     25  H   UNL     1      -4.363   5.331  -8.910  0.00  0.00    +0.000 HD
ATOM     26  H   UNL     1      -4.440   6.649  -7.721  0.00  0.00    +0.000 HD
ENDBRANCH  17  23
ENDBRANCH   1  17
TORSDOF 6
ENDMDL
MODEL 9
REMARK VINA RESULT:    -4.173     14.843     16.115
REMARK INTER + INTRA:          -5.515
REMARK INTER:                  -5.282
REMARK INTRA:                  -0.233
REMARK UNBOUND:                -0.245
REMARK  Name = 32594
REMARK  6 active torsions:
REMARK  status: ('A' for Active; 'I' for Inactive)
REMARK    1  A    between atoms: O_1  and  C_9
REMARK    2  A    between atoms: O_1  and  C_12
REMARK    3  A    between atoms: C_4  and  C_5
REMARK    4  A    between atoms: C_4  and  C_6
REMARK    5  A    between atoms: C_4  and  C_7
REMARK    6  A    between atoms: C_5  and  C_8
REMARK                            x       y       z     vdW  Elec       q    Type
REMARK                         _______ _______ _______ _____ _____    ______ ____
ROOT
ATOM      1  C   UNL     1      -2.002   6.644 -11.296  0.00  0.00    +0.000 C 
ATOM      2  H   UNL     1      -2.313   5.674 -11.707  0.00  0.00    +0.000 HD
ATOM      3  H   UNL     1      -1.226   6.406 -10.557  0.00  0.00    +0.000 HD
ENDROOT
BRANCH   1   6
ATOM      4  N   UNL     1      -0.554   8.433 -12.039  0.00  0.00    +0.000 NA
ATOM      5  N   UNL     1      -1.242   7.968 -14.719  0.00  0.00    +0.000 NA
ATOM      6  C   UNL     1      -1.412   7.474 -12.410  0.00  0.00    +0.000 A 
ATOM      7  C   UNL     1      -1.757   7.236 -13.712  0.00  0.00    +0.000 A 
ATOM      8  C   UNL     1      -0.039   9.167 -13.046  0.00  0.00    +0.000 A 
ATOM      9  C   UNL     1      -0.376   8.939 -14.362  0.00  0.00    +0.000 A 
ATOM     10  H   UNL     1       0.657   9.945 -12.760  0.00  0.00    +0.000 HD
ATOM     11  H   UNL     1       0.039   9.527 -15.170  0.00  0.00    +0.000 HD
BRANCH   7  12
ATOM     12  O   UNL     1      -2.638   6.246 -14.050  0.00  0.00    +0.000 OA
BRANCH  12  13
ATOM     13  C   UNL     1      -3.488   6.495 -15.165  0.00  0.00    +0.000 C 
ATOM     14  H   UNL     1      -3.821   7.539 -15.179  0.00  0.00    +0.000 HD
ATOM     15  H   UNL     1      -4.345   5.813 -15.165  0.00  0.00    +0.000 HD
ATOM     16  H   UNL     1      -2.910   6.313 -16.076  0.00  0.00    +0.000 HD
ENDBRANCH  12  13
ENDBRANCH   7  12
ENDBRANCH   1   6
BRANCH   1  17
ATOM     17  C   UNL     1      -3.200   7.308 -10.591  0.00  0.00    +0.000 C 
ATOM     18  H   UNL     1      -3.066   8.396 -10.644  0.00  0.00    +0.000 HD
BRANCH  17  19
ATOM     19  C   UNL     1      -4.531   6.944 -11.254  0.00  0.00    +0.000 C 
ATOM     20  H   UNL     1      -4.472   6.031 -11.855  0.00  0.00    +0.000 HD
ATOM     21  H   UNL     1      -4.897   7.764 -11.878  0.00  0.00    +0.000 HD
ATOM     22  H   UNL     1      -5.291   6.765 -10.484  0.00  0.00    +0.000 HD
ENDBRANCH  17  19
BRANCH  17  23
ATOM     23  C   UNL     1      -3.228   6.896  -9.118  0.00  0.00    +0.000 C 
ATOM     24  H   UNL     1      -2.656   7.611  -8.516  0.00  0.00    +0.000 HD
ATOM     25  H   UNL     1      -4.244   6.871  -8.709  0.00  0.00    +0.000 HD
ATOM     26  H   UNL     1      -2.772   5.909  -8.974  0.00  0.00    +0.000 HD
ENDBRANCH  17  23
ENDBRANCH   1  17
TORSDOF 6
ENDMDL
MODEL 10
REMARK VINA RESULT:    -4.153     13.911     15.064
REMARK INTER + INTRA:          -5.490
REMARK INTER:                  -5.245
REMARK INTRA:                  -0.245
REMARK UNBOUND:                -0.245
REMARK  Name = 32594
REMARK  6 active torsions:
REMARK  status: ('A' for Active; 'I' for Inactive)
REMARK    1  A    between atoms: O_1  and  C_9
REMARK    2  A    between atoms: O_1  and  C_12
REMARK    3  A    between atoms: C_4  and  C_5
REMARK    4  A    between atoms: C_4  and  C_6
REMARK    5  A    between atoms: C_4  and  C_7
REMARK    6  A    between atoms: C_5  and  C_8
REMARK                            x       y       z     vdW  Elec       q    Type
REMARK                         _______ _______ _______ _____ _____    ______ ____
ROOT
ATOM      1  C   UNL     1      -8.342  12.280   6.645  0.00  0.00    +0.000 C 
ATOM      2  H   UNL     1      -9.245  11.857   6.184  0.00  0.00    +0.000 HD
ATOM      3  H   UNL     1      -8.612  13.309   6.913  0.00  0.00    +0.000 HD
ENDROOT
BRANCH   1   6
ATOM      4  N   UNL     1      -7.193  12.078   8.765  0.00  0.00    +0.000 NA
ATOM      5  N   UNL     1      -8.291   9.533   9.195  0.00  0.00    +0.000 NA
ATOM      6  C   UNL     1      -8.023  11.491   7.892  0.00  0.00    +0.000 A 
ATOM      7  C   UNL     1      -8.566  10.251   8.088  0.00  0.00    +0.000 A 
ATOM      8  C   UNL     1      -6.918  11.361   9.872  0.00  0.00    +0.000 A 
ATOM      9  C   UNL     1      -7.457  10.111  10.084  0.00  0.00    +0.000 A 
ATOM     10  H   UNL     1      -6.249  11.824  10.586  0.00  0.00    +0.000 HD
ATOM     11  H   UNL     1      -7.236   9.535  10.973  0.00  0.00    +0.000 HD
BRANCH   7  12
ATOM     12  O   UNL     1      -9.410   9.686   7.173  0.00  0.00    +0.000 OA
BRANCH  12  13
ATOM     13  C   UNL     1     -10.758   9.478   7.584  0.00  0.00    +0.000 C 
ATOM     14  H   UNL     1     -10.984   8.410   7.664  0.00  0.00    +0.000 HD
ATOM     15  H   UNL     1     -11.457   9.975   6.901  0.00  0.00    +0.000 HD
ATOM     16  H   UNL     1     -10.879   9.924   8.576  0.00  0.00    +0.000 HD
ENDBRANCH  12  13
ENDBRANCH   7  12
ENDBRANCH   1   6
BRANCH   1  17
ATOM     17  C   UNL     1      -7.199  12.297   5.611  0.00  0.00    +0.000 C 
ATOM     18  H   UNL     1      -6.273  12.008   6.123  0.00  0.00    +0.000 HD
BRANCH  17  19
ATOM     19  C   UNL     1      -7.452  11.321   4.460  0.00  0.00    +0.000 C 
ATOM     20  H   UNL     1      -8.108  11.734   3.687  0.00  0.00    +0.000 HD
ATOM     21  H   UNL     1      -7.873  10.381   4.827  0.00  0.00    +0.000 HD
ATOM     22  H   UNL     1      -6.503  11.075   3.969  0.00  0.00    +0.000 HD
ENDBRANCH  17  19
BRANCH  17  23
ATOM     23  C   UNL     1      -7.024  13.713   5.057  0.00  0.00    +0.000 C 
ATOM     24  H   UNL     1      -7.266  13.731   3.989  0.00  0.00    +0.000 HD
ATOM     25  H   UNL     1      -7.680  14.439   5.549  0.00  0.00    +0.000 HD
ATOM     26  H   UNL     1      -5.988  14.054   5.163  0.00  0.00    +0.000 HD
ENDBRANCH  17  23
ENDBRANCH   1  17
TORSDOF 6
ENDMDL
