MODEL 1
REMARK VINA RESULT:    -4.682      0.000      0.000
REMARK INTER + INTRA:          -6.154
REMARK INTER:                  -5.936
REMARK INTRA:                  -0.218
REMARK UNBOUND:                -0.241
REMARK  Name = 32594
REMARK  6 active torsions:
REMARK  status: ('A' for Active; 'I' for Inactive)
REMARK    1  A    between atoms: O_1  and  C_9
REMARK    2  A    between atoms: O_1  and  C_12
REMARK    3  A    between atoms: C_4  and  C_5
REMARK    4  A    between atoms: C_4  and  C_6
REMARK    5  A    between atoms: C_4  and  C_7
REMARK    6  A    between atoms: C_5  and  C_8
REMARK                            x       y       z     vdW  Elec       q    Type
REMARK                         _______ _______ _______ _____ _____    ______ ____
ROOT
ATOM      1  C   UNL     1       4.009   9.640  -0.345  0.00  0.00    +0.000 C 
ATOM      2  H   UNL     1       3.958   8.937  -1.188  0.00  0.00    +0.000 HD
ATOM      3  H   UNL     1       3.165   9.371   0.303  0.00  0.00    +0.000 HD
ENDROOT
BRANCH   1   6
ATOM      4  N   UNL     1       6.416   9.843  -0.239  0.00  0.00    +0.000 NA
ATOM      5  N   UNL     1       6.476   8.621   2.285  0.00  0.00    +0.000 NA
ATOM      6  C   UNL     1       5.310   9.422   0.387  0.00  0.00    +0.000 A 
ATOM      7  C   UNL     1       5.323   8.825   1.618  0.00  0.00    +0.000 A 
ATOM      8  C   UNL     1       7.570   9.639   0.428  0.00  0.00    +0.000 A 
ATOM      9  C   UNL     1       7.599   9.040   1.668  0.00  0.00    +0.000 A 
ATOM     10  H   UNL     1       8.472   9.976  -0.067  0.00  0.00    +0.000 HD
ATOM     11  H   UNL     1       8.526   8.877   2.204  0.00  0.00    +0.000 HD
BRANCH   7  12
ATOM     12  O   UNL     1       4.171   8.409   2.225  0.00  0.00    +0.000 OA
BRANCH  12  13
ATOM     13  C   UNL     1       3.621   9.268   3.219  0.00  0.00    +0.000 C 
ATOM     14  H   UNL     1       2.831   8.760   3.783  0.00  0.00    +0.000 HD
ATOM     15  H   UNL     1       3.248  10.196   2.774  0.00  0.00    +0.000 HD
ATOM     16  H   UNL     1       4.422   9.526   3.920  0.00  0.00    +0.000 HD
ENDBRANCH  12  13
ENDBRANCH   7  12
ENDBRANCH   1   6
BRANCH   1  17
ATOM     17  C   UNL     1       3.821  11.078  -0.868  0.00  0.00    +0.000 C 
ATOM     18  H   UNL     1       4.800  11.452  -1.193  0.00  0.00    +0.000 HD
BRANCH  17  19
ATOM     19  C   UNL     1       2.853  11.137  -2.051  0.00  0.00    +0.000 C 
ATOM     20  H   UNL     1       3.045  11.985  -2.717  0.00  0.00    +0.000 HD
ATOM     21  H   UNL     1       1.815  11.175  -1.709  0.00  0.00    +0.000 HD
ATOM     22  H   UNL     1       2.955  10.231  -2.659  0.00  0.00    +0.000 HD
ENDBRANCH  17  19
BRANCH  17  23
ATOM     23  C   UNL     1       3.311  11.976   0.261  0.00  0.00    +0.000 C 
ATOM     24  H   UNL     1       3.506  11.508   1.232  0.00  0.00    +0.000 HD
ATOM     25  H   UNL     1       3.801  12.955   0.271  0.00  0.00    +0.000 HD
ATOM     26  H   UNL     1       2.229  12.132   0.185  0.00  0.00    +0.000 HD
ENDBRANCH  17  23
ENDBRANCH   1  17
TORSDOF 6
ENDMDL
MODEL 2
REMARK VINA RESULT:    -4.629     13.326     14.666
REMARK INTER + INTRA:          -6.087
REMARK INTER:                  -5.869
REMARK INTRA:                  -0.219
REMARK UNBOUND:                -0.241
REMARK  Name = 32594
REMARK  6 active torsions:
REMARK  status: ('A' for Active; 'I' for Inactive)
REMARK    1  A    between atoms: O_1  and  C_9
REMARK    2  A    between atoms: O_1  and  C_12
REMARK    3  A    between atoms: C_4  and  C_5
REMARK    4  A    between atoms: C_4  and  C_6
REMARK    5  A    between atoms: C_4  and  C_7
REMARK    6  A    between atoms: C_5  and  C_8
REMARK                            x       y       z     vdW  Elec       q    Type
REMARK                         _______ _______ _______ _____ _____    ______ ____
ROOT
ATOM      1  C   UNL     1      -2.794   6.711 -10.473  0.00  0.00    +0.000 C 
ATOM      2  H   UNL     1      -2.780   5.981 -11.294  0.00  0.00    +0.000 HD
ATOM      3  H   UNL     1      -2.263   6.222  -9.646  0.00  0.00    +0.000 HD
ENDROOT
BRANCH   1   6
ATOM      4  N   UNL     1      -2.032   8.966 -10.045  0.00  0.00    +0.000 NA
ATOM      5  N   UNL     1      -0.740   9.075 -12.532  0.00  0.00    +0.000 NA
ATOM      6  C   UNL     1      -2.041   7.943 -10.910  0.00  0.00    +0.000 A 
ATOM      7  C   UNL     1      -1.415   7.982 -12.125  0.00  0.00    +0.000 A 
ATOM      8  C   UNL     1      -1.357  10.060 -10.451  0.00  0.00    +0.000 A 
ATOM      9  C   UNL     1      -0.722  10.113 -11.672  0.00  0.00    +0.000 A 
ATOM     10  H   UNL     1      -1.342  10.894  -9.760  0.00  0.00    +0.000 HD
ATOM     11  H   UNL     1      -0.178  10.992 -11.997  0.00  0.00    +0.000 HD
BRANCH   7  12
ATOM     12  O   UNL     1      -1.447   6.916 -12.981  0.00  0.00    +0.000 OA
BRANCH  12  13
ATOM     13  C   UNL     1      -2.119   7.107 -14.222  0.00  0.00    +0.000 C 
ATOM     14  H   UNL     1      -2.004   8.137 -14.576  0.00  0.00    +0.000 HD
ATOM     15  H   UNL     1      -3.178   6.839 -14.141  0.00  0.00    +0.000 HD
ATOM     16  H   UNL     1      -1.657   6.444 -14.960  0.00  0.00    +0.000 HD
ENDBRANCH  12  13
ENDBRANCH   7  12
ENDBRANCH   1   6
BRANCH   1  17
ATOM     17  C   UNL     1      -4.253   6.987 -10.059  0.00  0.00    +0.000 C 
ATOM     18  H   UNL     1      -4.363   8.067  -9.900  0.00  0.00    +0.000 HD
BRANCH  17  19
ATOM     19  C   UNL     1      -5.248   6.543 -11.133  0.00  0.00    +0.000 C 
ATOM     20  H   UNL     1      -6.282   6.811 -10.893  0.00  0.00    +0.000 HD
ATOM     21  H   UNL     1      -5.186   5.465 -11.305  0.00  0.00    +0.000 HD
ATOM     22  H   UNL     1      -5.009   7.032 -12.084  0.00  0.00    +0.000 HD
ENDBRANCH  17  19
BRANCH  17  23
ATOM     23  C   UNL     1      -4.562   6.271  -8.742  0.00  0.00    +0.000 C 
ATOM     24  H   UNL     1      -3.697   6.328  -8.071  0.00  0.00    +0.000 HD
ATOM     25  H   UNL     1      -5.410   6.715  -8.213  0.00  0.00    +0.000 HD
ATOM     26  H   UNL     1      -4.775   5.209  -8.910  0.00  0.00    +0.000 HD
ENDBRANCH  17  23
ENDBRANCH   1  17
TORSDOF 6
ENDMDL
MODEL 3
REMARK VINA RESULT:    -4.587      1.677      2.596
REMARK INTER + INTRA:          -6.034
REMARK INTER:                  -5.956
REMARK INTRA:                  -0.077
REMARK UNBOUND:                -0.241
REMARK  Name = 32594
REMARK  6 active torsions:
REMARK  status: ('A' for Active; 'I' for Inactive)
REMARK    1  A    between atoms: O_1  and  C_9
REMARK    2  A    between atoms: O_1  and  C_12
REMARK    3  A    between atoms: C_4  and  C_5
REMARK    4  A    between atoms: C_4  and  C_6
REMARK    5  A    between atoms: C_4  and  C_7
REMARK    6  A    between atoms: C_5  and  C_8
REMARK                            x       y       z     vdW  Elec       q    Type
REMARK                         _______ _______ _______ _____ _____    ______ ____
ROOT
ATOM      1  C   UNL     1       3.751   9.361   0.009  0.00  0.00    +0.000 C 
ATOM      2  H   UNL     1       3.870   8.658  -0.827  0.00  0.00    +0.000 HD
ATOM      3  H   UNL     1       2.714   9.230   0.347  0.00  0.00    +0.000 HD
ENDROOT
BRANCH   1   6
ATOM      4  N   UNL     1       4.186   8.911   2.345  0.00  0.00    +0.000 NA
ATOM      5  N   UNL     1       6.878   8.341   1.804  0.00  0.00    +0.000 NA
ATOM      6  C   UNL     1       4.703   8.967   1.111  0.00  0.00    +0.000 A 
ATOM      7  C   UNL     1       6.014   8.692   0.832  0.00  0.00    +0.000 A 
ATOM      8  C   UNL     1       5.050   8.560   3.318  0.00  0.00    +0.000 A 
ATOM      9  C   UNL     1       6.373   8.280   3.053  0.00  0.00    +0.000 A 
ATOM     10  H   UNL     1       4.644   8.510   4.321  0.00  0.00    +0.000 HD
ATOM     11  H   UNL     1       7.067   7.997   3.834  0.00  0.00    +0.000 HD
BRANCH   7  12
ATOM     12  O   UNL     1       6.504   8.760  -0.442  0.00  0.00    +0.000 OA
BRANCH  12  13
ATOM     13  C   UNL     1       7.026   7.556  -0.996  0.00  0.00    +0.000 C 
ATOM     14  H   UNL     1       7.854   7.767  -1.682  0.00  0.00    +0.000 HD
ATOM     15  H   UNL     1       6.240   6.982  -1.497  0.00  0.00    +0.000 HD
ATOM     16  H   UNL     1       7.416   6.950  -0.173  0.00  0.00    +0.000 HD
ENDBRANCH  12  13
ENDBRANCH   7  12
ENDBRANCH   1   6
BRANCH   1  17
ATOM     17  C   UNL     1       3.950  10.801  -0.502  0.00  0.00    +0.000 C 
ATOM     18  H   UNL     1       5.022  10.955  -0.676  0.00  0.00    +0.000 HD
BRANCH  17  19
ATOM     19  C   UNL     1       3.196  11.057  -1.809  0.00  0.00    +0.000 C 
ATOM     20  H   UNL     1       2.664  10.173  -2.174  0.00  0.00    +0.000 HD
ATOM     21  H   UNL     1       3.873  11.418  -2.589  0.00  0.00    +0.000 HD
ATOM     22  H   UNL     1       2.442  11.837  -1.655  0.00  0.00    +0.000 HD
ENDBRANCH  17  19
BRANCH  17  23
ATOM     23  C   UNL     1       3.486  11.797   0.564  0.00  0.00    +0.000 C 
ATOM     24  H   UNL     1       3.691  11.401   1.564  0.00  0.00    +0.000 HD
ATOM     25  H   UNL     1       4.000  12.761   0.487  0.00  0.00    +0.000 HD
ATOM     26  H   UNL     1       2.406  11.974   0.497  0.00  0.00    +0.000 HD
ENDBRANCH  17  23
ENDBRANCH   1  17
TORSDOF 6
ENDMDL
MODEL 4
REMARK VINA RESULT:    -4.403     28.095     28.953
REMARK INTER + INTRA:          -5.803
REMARK INTER:                  -5.551
REMARK INTRA:                  -0.252
REMARK UNBOUND:                -0.241
REMARK  Name = 32594
REMARK  6 active torsions:
REMARK  status: ('A' for Active; 'I' for Inactive)
REMARK    1  A    between atoms: O_1  and  C_9
REMARK    2  A    between atoms: O_1  and  C_12
REMARK    3  A    between atoms: C_4  and  C_5
REMARK    4  A    between atoms: C_4  and  C_6
REMARK    5  A    between atoms: C_4  and  C_7
REMARK    6  A    between atoms: C_5  and  C_8
REMARK                            x       y       z     vdW  Elec       q    Type
REMARK                         _______ _______ _______ _____ _____    ______ ____
ROOT
ATOM      1  C   UNL     1     -21.419  -2.447   5.817  0.00  0.00    +0.000 C 
ATOM      2  H   UNL     1     -22.227  -1.953   5.261  0.00  0.00    +0.000 HD
ATOM      3  H   UNL     1     -21.924  -3.030   6.599  0.00  0.00    +0.000 HD
ENDROOT
BRANCH   1   6
ATOM      4  N   UNL     1     -19.930  -4.319   5.456  0.00  0.00    +0.000 NA
ATOM      5  N   UNL     1     -20.149  -4.043   2.673  0.00  0.00    +0.000 NA
ATOM      6  C   UNL     1     -20.684  -3.373   4.880  0.00  0.00    +0.000 A 
ATOM      7  C   UNL     1     -20.800  -3.226   3.525  0.00  0.00    +0.000 A 
ATOM      8  C   UNL     1     -19.279  -5.136   4.605  0.00  0.00    +0.000 A 
ATOM      9  C   UNL     1     -19.386  -5.002   3.238  0.00  0.00    +0.000 A 
ATOM     10  H   UNL     1     -18.667  -5.906   5.058  0.00  0.00    +0.000 HD
ATOM     11  H   UNL     1     -18.864  -5.659   2.555  0.00  0.00    +0.000 HD
BRANCH   7  12
ATOM     12  O   UNL     1     -21.579  -2.248   2.975  0.00  0.00    +0.000 OA
BRANCH  12  13
ATOM     13  C   UNL     1     -21.119  -1.666   1.759  0.00  0.00    +0.000 C 
ATOM     14  H   UNL     1     -20.689  -0.674   1.936  0.00  0.00    +0.000 HD
ATOM     15  H   UNL     1     -21.924  -1.615   1.018  0.00  0.00    +0.000 HD
ATOM     16  H   UNL     1     -20.330  -2.309   1.357  0.00  0.00    +0.000 HD
ENDBRANCH  12  13
ENDBRANCH   7  12
ENDBRANCH   1   6
BRANCH   1  17
ATOM     17  C   UNL     1     -20.520  -1.379   6.470  0.00  0.00    +0.000 C 
ATOM     18  H   UNL     1     -19.533  -1.826   6.647  0.00  0.00    +0.000 HD
BRANCH  17  19
ATOM     19  C   UNL     1     -20.349  -0.148   5.577  0.00  0.00    +0.000 C 
ATOM     20  H   UNL     1     -19.345  -0.067   5.148  0.00  0.00    +0.000 HD
ATOM     21  H   UNL     1     -20.583   0.770   6.123  0.00  0.00    +0.000 HD
ATOM     22  H   UNL     1     -21.048  -0.203   4.733  0.00  0.00    +0.000 HD
ENDBRANCH  17  19
BRANCH  17  23
ATOM     23  C   UNL     1     -21.109  -0.959   7.818  0.00  0.00    +0.000 C 
ATOM     24  H   UNL     1     -20.421  -0.280   8.334  0.00  0.00    +0.000 HD
ATOM     25  H   UNL     1     -22.063  -0.433   7.713  0.00  0.00    +0.000 HD
ATOM     26  H   UNL     1     -21.262  -1.827   8.471  0.00  0.00    +0.000 HD
ENDBRANCH  17  23
ENDBRANCH   1  17
TORSDOF 6
ENDMDL
MODEL 5
REMARK VINA RESULT:    -4.354     13.655     15.183
REMARK INTER + INTRA:          -5.740
REMARK INTER:                  -5.604
REMARK INTRA:                  -0.136
REMARK UNBOUND:                -0.241
REMARK  Name = 32594
REMARK  6 active torsions:
REMARK  status: ('A' for Active; 'I' for Inactive)
REMARK    1  A    between atoms: O_1  and  C_9
REMARK    2  A    between atoms: O_1  and  C_12
REMARK    3  A    between atoms: C_4  and  C_5
REMARK    4  A    between atoms: C_4  and  C_6
REMARK    5  A    between atoms: C_4  and  C_7
REMARK    6  A    between atoms: C_5  and  C_8
REMARK                            x       y       z     vdW  Elec       q    Type
REMARK                         _______ _______ _______ _____ _____    ______ ____
ROOT
ATOM      1  C   UNL     1      -1.962   6.746 -11.369  0.00  0.00    +0.000 C 
ATOM      2  H   UNL     1      -2.115   5.679 -11.585  0.00  0.00    +0.000 HD
ATOM      3  H   UNL     1      -1.140   6.775 -10.642  0.00  0.00    +0.000 HD
ENDROOT
BRANCH   1   6
ATOM      4  N   UNL     1      -2.020   6.918 -13.781  0.00  0.00    +0.000 NA
ATOM      5  N   UNL     1      -0.347   9.169 -13.728  0.00  0.00    +0.000 NA
ATOM      6  C   UNL     1      -1.546   7.441 -12.642  0.00  0.00    +0.000 A 
ATOM      7  C   UNL     1      -0.730   8.537 -12.601  0.00  0.00    +0.000 A 
ATOM      8  C   UNL     1      -1.638   7.550 -14.909  0.00  0.00    +0.000 A 
ATOM      9  C   UNL     1      -0.817   8.655 -14.883  0.00  0.00    +0.000 A 
ATOM     10  H   UNL     1      -2.016   7.138 -15.836  0.00  0.00    +0.000 HD
ATOM     11  H   UNL     1      -0.511   9.163 -15.790  0.00  0.00    +0.000 HD
BRANCH   7  12
ATOM     12  O   UNL     1      -0.266   9.041 -11.418  0.00  0.00    +0.000 OA
BRANCH  12  13
ATOM     13  C   UNL     1      -0.955  10.168 -10.884  0.00  0.00    +0.000 C 
ATOM     14  H   UNL     1      -2.038  10.054 -10.996  0.00  0.00    +0.000 HD
ATOM     15  H   UNL     1      -0.610  11.096 -11.351  0.00  0.00    +0.000 HD
ATOM     16  H   UNL     1      -0.730  10.223  -9.815  0.00  0.00    +0.000 HD
ENDBRANCH  12  13
ENDBRANCH   7  12
ENDBRANCH   1   6
BRANCH   1  17
ATOM     17  C   UNL     1      -3.238   7.327 -10.730  0.00  0.00    +0.000 C 
ATOM     18  H   UNL     1      -3.227   8.414 -10.878  0.00  0.00    +0.000 HD
BRANCH  17  19
ATOM     19  C   UNL     1      -4.509   6.756 -11.363  0.00  0.00    +0.000 C 
ATOM     20  H   UNL     1      -5.221   7.531 -11.663  0.00  0.00    +0.000 HD
ATOM     21  H   UNL     1      -5.003   6.053 -10.686  0.00  0.00    +0.000 HD
ATOM     22  H   UNL     1      -4.251   6.196 -12.270  0.00  0.00    +0.000 HD
ENDBRANCH  17  19
BRANCH  17  23
ATOM     23  C   UNL     1      -3.239   7.044  -9.226  0.00  0.00    +0.000 C 
ATOM     24  H   UNL     1      -2.370   6.434  -8.957  0.00  0.00    +0.000 HD
ATOM     25  H   UNL     1      -3.188   7.960  -8.628  0.00  0.00    +0.000 HD
ATOM     26  H   UNL     1      -4.135   6.486  -8.929  0.00  0.00    +0.000 HD
ENDBRANCH  17  23
ENDBRANCH   1  17
TORSDOF 6
ENDMDL
MODEL 6
REMARK VINA RESULT:    -4.216     28.395     29.819
REMARK INTER + INTRA:          -5.566
REMARK INTER:                  -5.358
REMARK INTRA:                  -0.208
REMARK UNBOUND:                -0.241
REMARK  Name = 32594
REMARK  6 active torsions:
REMARK  status: ('A' for Active; 'I' for Inactive)
REMARK    1  A    between atoms: O_1  and  C_9
REMARK    2  A    between atoms: O_1  and  C_12
REMARK    3  A    between atoms: C_4  and  C_5
REMARK    4  A    between atoms: C_4  and  C_6
REMARK    5  A    between atoms: C_4  and  C_7
REMARK    6  A    between atoms: C_5  and  C_8
REMARK                            x       y       z     vdW  Elec       q    Type
REMARK                         _______ _______ _______ _____ _____    ______ ____
ROOT
ATOM      1  C   UNL     1     -20.717  -2.741   6.261  0.00  0.00    +0.000 C 
ATOM      2  H   UNL     1     -20.846  -3.303   7.196  0.00  0.00    +0.000 HD
ATOM      3  H   UNL     1     -19.633  -2.725   6.085  0.00  0.00    +0.000 HD
ENDROOT
BRANCH   1   6
ATOM      4  N   UNL     1     -22.693  -3.179   4.937  0.00  0.00    +0.000 NA
ATOM      5  N   UNL     1     -21.332  -5.106   3.420  0.00  0.00    +0.000 NA
ATOM      6  C   UNL     1     -21.407  -3.490   5.148  0.00  0.00    +0.000 A 
ATOM      7  C   UNL     1     -20.730  -4.427   4.417  0.00  0.00    +0.000 A 
ATOM      8  C   UNL     1     -23.295  -3.858   3.941  0.00  0.00    +0.000 A 
ATOM      9  C   UNL     1     -22.627  -4.805   3.195  0.00  0.00    +0.000 A 
ATOM     10  H   UNL     1     -24.335  -3.616   3.760  0.00  0.00    +0.000 HD
ATOM     11  H   UNL     1     -23.111  -5.349   2.394  0.00  0.00    +0.000 HD
BRANCH   7  12
ATOM     12  O   UNL     1     -19.417  -4.716   4.663  0.00  0.00    +0.000 OA
BRANCH  12  13
ATOM     13  C   UNL     1     -18.619  -5.085   3.542  0.00  0.00    +0.000 C 
ATOM     14  H   UNL     1     -18.956  -6.036   3.116  0.00  0.00    +0.000 HD
ATOM     15  H   UNL     1     -17.559  -5.133   3.814  0.00  0.00    +0.000 HD
ATOM     16  H   UNL     1     -18.737  -4.312   2.777  0.00  0.00    +0.000 HD
ENDBRANCH  12  13
ENDBRANCH   7  12
ENDBRANCH   1   6
BRANCH   1  17
ATOM     17  C   UNL     1     -21.230  -1.301   6.455  0.00  0.00    +0.000 C 
ATOM     18  H   UNL     1     -22.263  -1.255   6.086  0.00  0.00    +0.000 HD
BRANCH  17  19
ATOM     19  C   UNL     1     -21.214  -0.878   7.926  0.00  0.00    +0.000 C 
ATOM     20  H   UNL     1     -21.978  -1.387   8.524  0.00  0.00    +0.000 HD
ATOM     21  H   UNL     1     -21.339   0.204   8.026  0.00  0.00    +0.000 HD
ATOM     22  H   UNL     1     -20.245  -1.130   8.373  0.00  0.00    +0.000 HD
ENDBRANCH  17  19
BRANCH  17  23
ATOM     23  C   UNL     1     -20.379  -0.332   5.632  0.00  0.00    +0.000 C 
ATOM     24  H   UNL     1     -19.858  -0.874   4.835  0.00  0.00    +0.000 HD
ATOM     25  H   UNL     1     -20.979   0.448   5.152  0.00  0.00    +0.000 HD
ATOM     26  H   UNL     1     -19.616   0.150   6.253  0.00  0.00    +0.000 HD
ENDBRANCH  17  23
ENDBRANCH   1  17
TORSDOF 6
ENDMDL
MODEL 7
REMARK VINA RESULT:    -4.136     28.844     30.946
REMARK INTER + INTRA:          -5.465
REMARK INTER:                  -5.216
REMARK INTRA:                  -0.249
REMARK UNBOUND:                -0.241
REMARK  Name = 32594
REMARK  6 active torsions:
REMARK  status: ('A' for Active; 'I' for Inactive)
REMARK    1  A    between atoms: O_1  and  C_9
REMARK    2  A    between atoms: O_1  and  C_12
REMARK    3  A    between atoms: C_4  and  C_5
REMARK    4  A    between atoms: C_4  and  C_6
REMARK    5  A    between atoms: C_4  and  C_7
REMARK    6  A    between atoms: C_5  and  C_8
REMARK                            x       y       z     vdW  Elec       q    Type
REMARK                         _______ _______ _______ _____ _____    ______ ____
ROOT
ATOM      1  C   UNL     1     -10.748 -12.627  17.219  0.00  0.00    +0.000 C 
ATOM      2  H   UNL     1     -10.002 -12.755  18.015  0.00  0.00    +0.000 HD
ATOM      3  H   UNL     1     -11.615 -12.168  17.710  0.00  0.00    +0.000 HD
ENDROOT
BRANCH   1   6
ATOM      4  N   UNL     1      -9.070 -12.088  15.563  0.00  0.00    +0.000 NA
ATOM      5  N   UNL     1     -10.324  -9.647  14.986  0.00  0.00    +0.000 NA
ATOM      6  C   UNL     1     -10.188 -11.687  16.180  0.00  0.00    +0.000 A 
ATOM      7  C   UNL     1     -10.811 -10.499  15.909  0.00  0.00    +0.000 A 
ATOM      8  C   UNL     1      -8.582 -11.236  14.639  0.00  0.00    +0.000 A 
ATOM      9  C   UNL     1      -9.198 -10.037  14.355  0.00  0.00    +0.000 A 
ATOM     10  H   UNL     1      -7.678 -11.550  14.132  0.00  0.00    +0.000 HD
ATOM     11  H   UNL     1      -8.807  -9.354  13.612  0.00  0.00    +0.000 HD
BRANCH   7  12
ATOM     12  O   UNL     1     -11.953 -10.124  16.562  0.00  0.00    +0.000 OA
BRANCH  12  13
ATOM     13  C   UNL     1     -13.160 -10.140  15.806  0.00  0.00    +0.000 C 
ATOM     14  H   UNL     1     -13.499 -11.167  15.630  0.00  0.00    +0.000 HD
ATOM     15  H   UNL     1     -13.038  -9.602  14.860  0.00  0.00    +0.000 HD
ATOM     16  H   UNL     1     -13.929  -9.627  16.391  0.00  0.00    +0.000 HD
ENDBRANCH  12  13
ENDBRANCH   7  12
ENDBRANCH   1   6
BRANCH   1  17
ATOM     17  C   UNL     1     -11.141 -14.008  16.661  0.00  0.00    +0.000 C 
ATOM     18  H   UNL     1     -10.715 -14.103  15.654  0.00  0.00    +0.000 HD
BRANCH  17  19
ATOM     19  C   UNL     1     -10.612 -15.151  17.530  0.00  0.00    +0.000 C 
ATOM     20  H   UNL     1      -9.756 -15.667  17.082  0.00  0.00    +0.000 HD
ATOM     21  H   UNL     1     -11.400 -15.879  17.745  0.00  0.00    +0.000 HD
ATOM     22  H   UNL     1     -10.272 -14.756  18.494  0.00  0.00    +0.000 HD
ENDBRANCH  17  19
BRANCH  17  23
ATOM     23  C   UNL     1     -12.665 -14.108  16.551  0.00  0.00    +0.000 C 
ATOM     24  H   UNL     1     -13.114 -14.114  17.550  0.00  0.00    +0.000 HD
ATOM     25  H   UNL     1     -13.101 -13.264  16.007  0.00  0.00    +0.000 HD
ATOM     26  H   UNL     1     -12.966 -15.036  16.051  0.00  0.00    +0.000 HD
ENDBRANCH  17  23
ENDBRANCH   1  17
TORSDOF 6
ENDMDL
MODEL 8
REMARK VINA RESULT:    -4.123     13.897     15.123
REMARK INTER + INTRA:          -5.448
REMARK INTER:                  -5.201
REMARK INTRA:                  -0.247
REMARK UNBOUND:                -0.241
REMARK  Name = 32594
REMARK  6 active torsions:
REMARK  status: ('A' for Active; 'I' for Inactive)
REMARK    1  A    between atoms: O_1  and  C_9
REMARK    2  A    between atoms: O_1  and  C_12
REMARK    3  A    between atoms: C_4  and  C_5
REMARK    4  A    between atoms: C_4  and  C_6
REMARK    5  A    between atoms: C_4  and  C_7
REMARK    6  A    between atoms: C_5  and  C_8
REMARK                            x       y       z     vdW  Elec       q    Type
REMARK                         _______ _______ _______ _____ _____    ______ ____
ROOT
ATOM      1  C   UNL     1      -8.360  12.242   6.688  0.00  0.00    +0.000 C 
ATOM      2  H   UNL     1      -9.298  11.947   6.198  0.00  0.00    +0.000 HD
ATOM      3  H   UNL     1      -8.521  13.279   7.013  0.00  0.00    +0.000 HD
ENDROOT
BRANCH   1   6
ATOM      4  N   UNL     1      -7.314  11.827   8.829  0.00  0.00    +0.000 NA
ATOM      5  N   UNL     1      -8.590   9.339   9.046  0.00  0.00    +0.000 NA
ATOM      6  C   UNL     1      -8.144  11.355   7.889  0.00  0.00    +0.000 A 
ATOM      7  C   UNL     1      -8.773  10.144   7.982  0.00  0.00    +0.000 A 
ATOM      8  C   UNL     1      -7.130  11.022   9.894  0.00  0.00    +0.000 A 
ATOM      9  C   UNL     1      -7.757   9.800  10.001  0.00  0.00    +0.000 A 
ATOM     10  H   UNL     1      -6.461  11.392  10.661  0.00  0.00    +0.000 HD
ATOM     11  H   UNL     1      -7.609   9.154  10.858  0.00  0.00    +0.000 HD
BRANCH   7  12
ATOM     12  O   UNL     1      -9.614   9.697   7.001  0.00  0.00    +0.000 OA
BRANCH  12  13
ATOM     13  C   UNL     1     -10.981   9.516   7.359  0.00  0.00    +0.000 C 
ATOM     14  H   UNL     1     -11.069   8.974   8.307  0.00  0.00    +0.000 HD
ATOM     15  H   UNL     1     -11.530   9.002   6.563  0.00  0.00    +0.000 HD
ATOM     16  H   UNL     1     -11.427  10.506   7.493  0.00  0.00    +0.000 HD
ENDBRANCH  12  13
ENDBRANCH   7  12
ENDBRANCH   1   6
BRANCH   1  17
ATOM     17  C   UNL     1      -7.211  12.194   5.663  0.00  0.00    +0.000 C 
ATOM     18  H   UNL     1      -6.332  11.761   6.158  0.00  0.00    +0.000 HD
BRANCH  17  19
ATOM     19  C   UNL     1      -7.562  11.338   4.445  0.00  0.00    +0.000 C 
ATOM     20  H   UNL     1      -8.400  11.742   3.866  0.00  0.00    +0.000 HD
ATOM     21  H   UNL     1      -7.791  10.309   4.740  0.00  0.00    +0.000 HD
ATOM     22  H   UNL     1      -6.704  11.291   3.765  0.00  0.00    +0.000 HD
ENDBRANCH  17  19
BRANCH  17  23
ATOM     23  C   UNL     1      -6.860  13.614   5.211  0.00  0.00    +0.000 C 
ATOM     24  H   UNL     1      -7.092  13.738   4.147  0.00  0.00    +0.000 HD
ATOM     25  H   UNL     1      -7.424  14.378   5.755  0.00  0.00    +0.000 HD
ATOM     26  H   UNL     1      -5.790  13.817   5.338  0.00  0.00    +0.000 HD
ENDBRANCH  17  23
ENDBRANCH   1  17
TORSDOF 6
ENDMDL
MODEL 9
REMARK VINA RESULT:    -4.117     13.758     15.170
REMARK INTER + INTRA:          -5.441
REMARK INTER:                  -5.200
REMARK INTRA:                  -0.241
REMARK UNBOUND:                -0.241
REMARK  Name = 32594
REMARK  6 active torsions:
REMARK  status: ('A' for Active; 'I' for Inactive)
REMARK    1  A    between atoms: O_1  and  C_9
REMARK    2  A    between atoms: O_1  and  C_12
REMARK    3  A    between atoms: C_4  and  C_5
REMARK    4  A    between atoms: C_4  and  C_6
REMARK    5  A    between atoms: C_4  and  C_7
REMARK    6  A    between atoms: C_5  and  C_8
REMARK                            x       y       z     vdW  Elec       q    Type
REMARK                         _______ _______ _______ _____ _____    ______ ____
ROOT
ATOM      1  C   UNL     1      -2.607   8.536 -10.300  0.00  0.00    +0.000 C 
ATOM      2  H   UNL     1      -1.906   8.736  -9.478  0.00  0.00    +0.000 HD
ATOM      3  H   UNL     1      -3.478   9.171 -10.094  0.00  0.00    +0.000 HD
ENDROOT
BRANCH   1   6
ATOM      4  N   UNL     1      -0.737   8.463 -11.832  0.00  0.00    +0.000 NA
ATOM      5  N   UNL     1      -2.051  10.175 -13.624  0.00  0.00    +0.000 NA
ATOM      6  C   UNL     1      -1.961   8.954 -11.598  0.00  0.00    +0.000 A 
ATOM      7  C   UNL     1      -2.614   9.790 -12.462  0.00  0.00    +0.000 A 
ATOM      8  C   UNL     1      -0.173   8.848 -12.994  0.00  0.00    +0.000 A 
ATOM      9  C   UNL     1      -0.818   9.688 -13.875  0.00  0.00    +0.000 A 
ATOM     10  H   UNL     1       0.816   8.457 -13.196  0.00  0.00    +0.000 HD
ATOM     11  H   UNL     1      -0.366   9.997 -14.809  0.00  0.00    +0.000 HD
BRANCH   7  12
ATOM     12  O   UNL     1      -3.863  10.271 -12.186  0.00  0.00    +0.000 OA
BRANCH  12  13
ATOM     13  C   UNL     1      -4.883   9.998 -13.143  0.00  0.00    +0.000 C 
ATOM     14  H   UNL     1      -5.876  10.060 -12.686  0.00  0.00    +0.000 HD
ATOM     15  H   UNL     1      -4.729   9.020 -13.612  0.00  0.00    +0.000 HD
ATOM     16  H   UNL     1      -4.823  10.761 -13.925  0.00  0.00    +0.000 HD
ENDBRANCH  12  13
ENDBRANCH   7  12
ENDBRANCH   1   6
BRANCH   1  17
ATOM     17  C   UNL     1      -3.028   7.054 -10.264  0.00  0.00    +0.000 C 
ATOM     18  H   UNL     1      -2.170   6.448 -10.583  0.00  0.00    +0.000 HD
BRANCH  17  19
ATOM     19  C   UNL     1      -3.449   6.610  -8.861  0.00  0.00    +0.000 C 
ATOM     20  H   UNL     1      -4.518   6.748  -8.673  0.00  0.00    +0.000 HD
ATOM     21  H   UNL     1      -2.876   7.139  -8.093  0.00  0.00    +0.000 HD
ATOM     22  H   UNL     1      -3.242   5.541  -8.733  0.00  0.00    +0.000 HD
ENDBRANCH  17  19
BRANCH  17  23
ATOM     23  C   UNL     1      -4.178   6.818 -11.245  0.00  0.00    +0.000 C 
ATOM     24  H   UNL     1      -5.133   6.806 -10.709  0.00  0.00    +0.000 HD
ATOM     25  H   UNL     1      -4.246   7.601 -12.007  0.00  0.00    +0.000 HD
ATOM     26  H   UNL     1      -4.075   5.851 -11.751  0.00  0.00    +0.000 HD
ENDBRANCH  17  23
ENDBRANCH   1  17
TORSDOF 6
ENDMDL
MODEL 10
REMARK VINA RESULT:    -4.019     28.776     30.928
REMARK INTER + INTRA:          -5.317
REMARK INTER:                  -5.077
REMARK INTRA:                  -0.241
REMARK UNBOUND:                -0.241
REMARK  Name = 32594
REMARK  6 active torsions:
REMARK  status: ('A' for Active; 'I' for Inactive)
REMARK    1  A    between atoms: O_1  and  C_9
REMARK    2  A    between atoms: O_1  and  C_12
REMARK    3  A    between atoms: C_4  and  C_5
REMARK    4  A    between atoms: C_4  and  C_6
REMARK    5  A    between atoms: C_4  and  C_7
REMARK    6  A    between atoms: C_5  and  C_8
REMARK                            x       y       z     vdW  Elec       q    Type
REMARK                         _______ _______ _______ _____ _____    ______ ____
ROOT
ATOM      1  C   UNL     1     -10.499 -13.047  16.893  0.00  0.00    +0.000 C 
ATOM      2  H   UNL     1     -11.560 -12.966  17.166  0.00  0.00    +0.000 HD
ATOM      3  H   UNL     1     -10.424 -13.974  16.310  0.00  0.00    +0.000 HD
ENDROOT
BRANCH   1   6
ATOM      4  N   UNL     1      -8.999 -11.981  15.324  0.00  0.00    +0.000 NA
ATOM      5  N   UNL     1     -10.615  -9.691  15.229  0.00  0.00    +0.000 NA
ATOM      6  C   UNL     1     -10.132 -11.866  16.029  0.00  0.00    +0.000 A 
ATOM      7  C   UNL     1     -10.930 -10.756  15.993  0.00  0.00    +0.000 A 
ATOM      8  C   UNL     1      -8.684 -10.917  14.560  0.00  0.00    +0.000 A 
ATOM      9  C   UNL     1      -9.478  -9.792  14.512  0.00  0.00    +0.000 A 
ATOM     10  H   UNL     1      -7.770 -10.998  13.984  0.00  0.00    +0.000 HD
ATOM     11  H   UNL     1      -9.225  -8.938  13.897  0.00  0.00    +0.000 HD
BRANCH   7  12
ATOM     12  O   UNL     1     -12.080 -10.676  16.728  0.00  0.00    +0.000 OA
BRANCH  12  13
ATOM     13  C   UNL     1     -13.308 -10.713  16.008  0.00  0.00    +0.000 C 
ATOM     14  H   UNL     1     -13.841  -9.760  16.093  0.00  0.00    +0.000 HD
ATOM     15  H   UNL     1     -13.936 -11.544  16.345  0.00  0.00    +0.000 HD
ATOM     16  H   UNL     1     -13.073 -10.874  14.951  0.00  0.00    +0.000 HD
ENDBRANCH  12  13
ENDBRANCH   7  12
ENDBRANCH   1   6
BRANCH   1  17
ATOM     17  C   UNL     1      -9.649 -13.172  18.173  0.00  0.00    +0.000 C 
ATOM     18  H   UNL     1      -8.753 -12.551  18.048  0.00  0.00    +0.000 HD
BRANCH  17  19
ATOM     19  C   UNL     1     -10.408 -12.697  19.414  0.00  0.00    +0.000 C 
ATOM     20  H   UNL     1     -11.468 -12.506  19.219  0.00  0.00    +0.000 HD
ATOM     21  H   UNL     1      -9.950 -11.798  19.835  0.00  0.00    +0.000 HD
ATOM     22  H   UNL     1     -10.365 -13.470  20.191  0.00  0.00    +0.000 HD
ENDBRANCH  17  19
BRANCH  17  23
ATOM     23  C   UNL     1      -9.209 -14.625  18.362  0.00  0.00    +0.000 C 
ATOM     24  H   UNL     1      -8.956 -14.808  19.412  0.00  0.00    +0.000 HD
ATOM     25  H   UNL     1      -9.992 -15.339  18.090  0.00  0.00    +0.000 HD
ATOM     26  H   UNL     1      -8.315 -14.848  17.768  0.00  0.00    +0.000 HD
ENDBRANCH  17  23
ENDBRANCH   1  17
TORSDOF 6
ENDMDL
