MODEL 1
REMARK VINA RESULT:    -3.733      0.000      0.000
REMARK INTER + INTRA:          -3.842
REMARK INTER:                  -3.842
REMARK INTRA:                   0.000
REMARK UNBOUND:                 0.000
REMARK  Name = 7976
REMARK  1 active torsions:
REMARK  status: ('A' for Active; 'I' for Inactive)
REMARK    1  A    between atoms: C_3  and  C_4
REMARK                            x       y       z     vdW  Elec       q    Type
REMARK                         _______ _______ _______ _____ _____    ______ ____
ROOT
ATOM      1  N   UNL     1       3.158  10.357   1.801  0.00  0.00    +0.000 NA
ATOM      2  N   UNL     1       5.357   8.876   0.886  0.00  0.00    +0.000 NA
ATOM      3  C   UNL     1       3.780  10.645   0.640  0.00  0.00    +0.000 A 
ATOM      4  C   UNL     1       4.860   9.917   0.191  0.00  0.00    +0.000 A 
ATOM      5  C   UNL     1       3.657   9.315   2.496  0.00  0.00    +0.000 A 
ATOM      6  C   UNL     1       4.736   8.588   2.047  0.00  0.00    +0.000 A 
ATOM      7  H   UNL     1       5.365  10.143  -0.742  0.00  0.00    +0.000 HD
ATOM      8  H   UNL     1       3.158   9.083   3.430  0.00  0.00    +0.000 HD
ATOM      9  H   UNL     1       5.135   7.750   2.606  0.00  0.00    +0.000 HD
ENDROOT
BRANCH   3  10
ATOM     10  C   UNL     1       3.257  11.790  -0.154  0.00  0.00    +0.000 C 
ATOM     11  H   UNL     1       2.747  11.429  -1.054  0.00  0.00    +0.000 HD
ATOM     12  H   UNL     1       2.553  12.379   0.443  0.00  0.00    +0.000 HD
ATOM     13  H   UNL     1       4.069  12.453  -0.470  0.00  0.00    +0.000 HD
ENDBRANCH   3  10
TORSDOF 1
ENDMDL
MODEL 2
REMARK VINA RESULT:    -3.719      1.447      2.513
REMARK INTER + INTRA:          -3.827
REMARK INTER:                  -3.827
REMARK INTRA:                   0.000
REMARK UNBOUND:                 0.000
REMARK  Name = 7976
REMARK  1 active torsions:
REMARK  status: ('A' for Active; 'I' for Inactive)
REMARK    1  A    between atoms: C_3  and  C_4
REMARK                            x       y       z     vdW  Elec       q    Type
REMARK                         _______ _______ _______ _____ _____    ______ ____
ROOT
ATOM      1  N   UNL     1       5.526   9.517   0.225  0.00  0.00    +0.000 NA
ATOM      2  N   UNL     1       3.560  11.324   1.086  0.00  0.00    +0.000 NA
ATOM      3  C   UNL     1       5.531  10.811  -0.153  0.00  0.00    +0.000 A 
ATOM      4  C   UNL     1       4.565  11.699   0.270  0.00  0.00    +0.000 A 
ATOM      5  C   UNL     1       4.520   9.143   1.041  0.00  0.00    +0.000 A 
ATOM      6  C   UNL     1       3.555  10.031   1.464  0.00  0.00    +0.000 A 
ATOM      7  H   UNL     1       4.563  12.740  -0.030  0.00  0.00    +0.000 HD
ATOM      8  H   UNL     1       4.515   8.104   1.346  0.00  0.00    +0.000 HD
ATOM      9  H   UNL     1       2.748   9.728   2.120  0.00  0.00    +0.000 HD
ENDROOT
BRANCH   3  10
ATOM     10  C   UNL     1       6.627  11.260  -1.055  0.00  0.00    +0.000 C 
ATOM     11  H   UNL     1       6.253  12.002  -1.769  0.00  0.00    +0.000 HD
ATOM     12  H   UNL     1       7.441  11.704  -0.473  0.00  0.00    +0.000 HD
ATOM     13  H   UNL     1       7.037  10.420  -1.624  0.00  0.00    +0.000 HD
ENDBRANCH   3  10
TORSDOF 1
ENDMDL
MODEL 3
REMARK VINA RESULT:    -3.640     12.525     13.434
REMARK INTER + INTRA:          -3.746
REMARK INTER:                  -3.746
REMARK INTRA:                   0.000
REMARK UNBOUND:                 0.000
REMARK  Name = 7976
REMARK  1 active torsions:
REMARK  status: ('A' for Active; 'I' for Inactive)
REMARK    1  A    between atoms: C_3  and  C_4
REMARK                            x       y       z     vdW  Elec       q    Type
REMARK                         _______ _______ _______ _____ _____    ______ ____
ROOT
ATOM      1  N   UNL     1      -2.278   7.269 -10.950  0.00  0.00    +0.000 NA
ATOM      2  N   UNL     1      -1.690   9.840  -9.994  0.00  0.00    +0.000 NA
ATOM      3  C   UNL     1      -2.743   7.714  -9.765  0.00  0.00    +0.000 A 
ATOM      4  C   UNL     1      -2.454   8.977  -9.296  0.00  0.00    +0.000 A 
ATOM      5  C   UNL     1      -1.514   8.134 -11.648  0.00  0.00    +0.000 A 
ATOM      6  C   UNL     1      -1.226   9.395 -11.179  0.00  0.00    +0.000 A 
ATOM      7  H   UNL     1      -2.823   9.342  -8.344  0.00  0.00    +0.000 HD
ATOM      8  H   UNL     1      -1.141   7.777 -12.600  0.00  0.00    +0.000 HD
ATOM      9  H   UNL     1      -0.612  10.089 -11.741  0.00  0.00    +0.000 HD
ENDROOT
BRANCH   3  10
ATOM     10  C   UNL     1      -3.590   6.787  -8.966  0.00  0.00    +0.000 C 
ATOM     11  H   UNL     1      -3.822   7.228  -7.991  0.00  0.00    +0.000 HD
ATOM     12  H   UNL     1      -4.526   6.576  -9.493  0.00  0.00    +0.000 HD
ATOM     13  H   UNL     1      -3.077   5.836  -8.793  0.00  0.00    +0.000 HD
ENDBRANCH   3  10
TORSDOF 1
ENDMDL
MODEL 4
REMARK VINA RESULT:    -3.552      1.166      3.209
REMARK INTER + INTRA:          -3.656
REMARK INTER:                  -3.656
REMARK INTRA:                   0.000
REMARK UNBOUND:                 0.000
REMARK  Name = 7976
REMARK  1 active torsions:
REMARK  status: ('A' for Active; 'I' for Inactive)
REMARK    1  A    between atoms: C_3  and  C_4
REMARK                            x       y       z     vdW  Elec       q    Type
REMARK                         _______ _______ _______ _____ _____    ______ ____
ROOT
ATOM      1  N   UNL     1       5.702  10.225   0.195  0.00  0.00    +0.000 NA
ATOM      2  N   UNL     1       3.235  10.679   1.451  0.00  0.00    +0.000 NA
ATOM      3  C   UNL     1       5.240   9.421   1.173  0.00  0.00    +0.000 A 
ATOM      4  C   UNL     1       4.028   9.644   1.790  0.00  0.00    +0.000 A 
ATOM      5  C   UNL     1       4.908  11.261  -0.143  0.00  0.00    +0.000 A 
ATOM      6  C   UNL     1       3.697  11.483   0.473  0.00  0.00    +0.000 A 
ATOM      7  H   UNL     1       3.650   9.001   2.577  0.00  0.00    +0.000 HD
ATOM      8  H   UNL     1       5.278  11.908  -0.930  0.00  0.00    +0.000 HD
ATOM      9  H   UNL     1       3.060  12.316   0.200  0.00  0.00    +0.000 HD
ENDROOT
BRANCH   3  10
ATOM     10  C   UNL     1       6.091   8.266   1.574  0.00  0.00    +0.000 C 
ATOM     11  H   UNL     1       6.367   8.345   2.630  0.00  0.00    +0.000 HD
ATOM     12  H   UNL     1       5.555   7.325   1.415  0.00  0.00    +0.000 HD
ATOM     13  H   UNL     1       7.013   8.234   0.985  0.00  0.00    +0.000 HD
ENDBRANCH   3  10
TORSDOF 1
ENDMDL
MODEL 5
REMARK VINA RESULT:    -3.299     27.086     27.909
REMARK INTER + INTRA:          -3.396
REMARK INTER:                  -3.396
REMARK INTRA:                   0.000
REMARK UNBOUND:                 0.000
REMARK  Name = 7976
REMARK  1 active torsions:
REMARK  status: ('A' for Active; 'I' for Inactive)
REMARK    1  A    between atoms: C_3  and  C_4
REMARK                            x       y       z     vdW  Elec       q    Type
REMARK                         _______ _______ _______ _____ _____    ______ ____
ROOT
ATOM      1  N   UNL     1     -20.810  -0.366   6.968  0.00  0.00    +0.000 NA
ATOM      2  N   UNL     1     -21.129  -2.966   5.964  0.00  0.00    +0.000 NA
ATOM      3  C   UNL     1     -20.644  -0.652   5.661  0.00  0.00    +0.000 A 
ATOM      4  C   UNL     1     -20.800  -1.930   5.168  0.00  0.00    +0.000 A 
ATOM      5  C   UNL     1     -21.139  -1.404   7.763  0.00  0.00    +0.000 A 
ATOM      6  C   UNL     1     -21.296  -2.680   7.271  0.00  0.00    +0.000 A 
ATOM      7  H   UNL     1     -20.668  -2.168   4.119  0.00  0.00    +0.000 HD
ATOM      8  H   UNL     1     -21.274  -1.174   8.814  0.00  0.00    +0.000 HD
ATOM      9  H   UNL     1     -21.560  -3.512   7.911  0.00  0.00    +0.000 HD
ENDROOT
BRANCH   3  10
ATOM     10  C   UNL     1     -20.280   0.469   4.752  0.00  0.00    +0.000 C 
ATOM     11  H   UNL     1     -19.324   0.263   4.257  0.00  0.00    +0.000 HD
ATOM     12  H   UNL     1     -21.053   0.608   3.990  0.00  0.00    +0.000 HD
ATOM     13  H   UNL     1     -20.177   1.407   5.306  0.00  0.00    +0.000 HD
ENDBRANCH   3  10
TORSDOF 1
ENDMDL
MODEL 6
REMARK VINA RESULT:    -3.293     28.203     29.309
REMARK INTER + INTRA:          -3.390
REMARK INTER:                  -3.390
REMARK INTRA:                   0.000
REMARK UNBOUND:                 0.000
REMARK  Name = 7976
REMARK  1 active torsions:
REMARK  status: ('A' for Active; 'I' for Inactive)
REMARK    1  A    between atoms: C_3  and  C_4
REMARK                            x       y       z     vdW  Elec       q    Type
REMARK                         _______ _______ _______ _____ _____    ______ ____
ROOT
ATOM      1  N   UNL     1     -10.340  -9.747  15.200  0.00  0.00    +0.000 NA
ATOM      2  N   UNL     1      -9.675 -12.355  15.992  0.00  0.00    +0.000 NA
ATOM      3  C   UNL     1     -11.147 -10.480  15.994  0.00  0.00    +0.000 A 
ATOM      4  C   UNL     1     -10.820 -11.761  16.383  0.00  0.00    +0.000 A 
ATOM      5  C   UNL     1      -9.195 -10.342  14.810  0.00  0.00    +0.000 A 
ATOM      6  C   UNL     1      -8.869 -11.622  15.198  0.00  0.00    +0.000 A 
ATOM      7  H   UNL     1     -11.463 -12.356  17.021  0.00  0.00    +0.000 HD
ATOM      8  H   UNL     1      -8.546  -9.754  14.171  0.00  0.00    +0.000 HD
ATOM      9  H   UNL     1      -7.948 -12.099  14.884  0.00  0.00    +0.000 HD
ENDROOT
BRANCH   3  10
ATOM     10  C   UNL     1     -12.420  -9.855  16.445  0.00  0.00    +0.000 C 
ATOM     11  H   UNL     1     -12.475  -9.847  17.539  0.00  0.00    +0.000 HD
ATOM     12  H   UNL     1     -12.492  -8.827  16.077  0.00  0.00    +0.000 HD
ATOM     13  H   UNL     1     -13.286 -10.410  16.069  0.00  0.00    +0.000 HD
ENDBRANCH   3  10
TORSDOF 1
ENDMDL
MODEL 7
REMARK VINA RESULT:    -3.200     27.355     28.215
REMARK INTER + INTRA:          -3.294
REMARK INTER:                  -3.294
REMARK INTRA:                   0.000
REMARK UNBOUND:                 0.000
REMARK  Name = 7976
REMARK  1 active torsions:
REMARK  status: ('A' for Active; 'I' for Inactive)
REMARK    1  A    between atoms: C_3  and  C_4
REMARK                            x       y       z     vdW  Elec       q    Type
REMARK                         _______ _______ _______ _____ _____    ______ ____
ROOT
ATOM      1  N   UNL     1     -20.527  -1.032   5.368  0.00  0.00    +0.000 NA
ATOM      2  N   UNL     1     -21.322  -2.214   7.785  0.00  0.00    +0.000 NA
ATOM      3  C   UNL     1     -20.839  -2.341   5.455  0.00  0.00    +0.000 A 
ATOM      4  C   UNL     1     -21.230  -2.921   6.642  0.00  0.00    +0.000 A 
ATOM      5  C   UNL     1     -20.620  -0.325   6.512  0.00  0.00    +0.000 A 
ATOM      6  C   UNL     1     -21.010  -0.905   7.699  0.00  0.00    +0.000 A 
ATOM      7  H   UNL     1     -21.482  -3.972   6.720  0.00  0.00    +0.000 HD
ATOM      8  H   UNL     1     -20.369   0.727   6.444  0.00  0.00    +0.000 HD
ATOM      9  H   UNL     1     -21.084  -0.335   8.617  0.00  0.00    +0.000 HD
ENDROOT
BRANCH   3  10
ATOM     10  C   UNL     1     -20.748  -3.154   4.211  0.00  0.00    +0.000 C 
ATOM     11  H   UNL     1     -20.384  -2.540   3.380  0.00  0.00    +0.000 HD
ATOM     12  H   UNL     1     -20.065  -3.997   4.356  0.00  0.00    +0.000 HD
ATOM     13  H   UNL     1     -21.727  -3.556   3.931  0.00  0.00    +0.000 HD
ENDBRANCH   3  10
TORSDOF 1
ENDMDL
MODEL 8
REMARK VINA RESULT:    -3.109      1.770      2.344
REMARK INTER + INTRA:          -3.200
REMARK INTER:                  -3.200
REMARK INTRA:                   0.000
REMARK UNBOUND:                 0.000
REMARK  Name = 7976
REMARK  1 active torsions:
REMARK  status: ('A' for Active; 'I' for Inactive)
REMARK    1  A    between atoms: C_3  and  C_4
REMARK                            x       y       z     vdW  Elec       q    Type
REMARK                         _______ _______ _______ _____ _____    ______ ____
ROOT
ATOM      1  N   UNL     1       4.651   9.491   0.431  0.00  0.00    +0.000 NA
ATOM      2  N   UNL     1       7.028  10.484  -0.679  0.00  0.00    +0.000 NA
ATOM      3  C   UNL     1       4.794  10.788   0.093  0.00  0.00    +0.000 A 
ATOM      4  C   UNL     1       5.962  11.276  -0.453  0.00  0.00    +0.000 A 
ATOM      5  C   UNL     1       5.718   8.700   0.204  0.00  0.00    +0.000 A 
ATOM      6  C   UNL     1       6.885   9.187  -0.341  0.00  0.00    +0.000 A 
ATOM      7  H   UNL     1       6.084  12.317  -0.727  0.00  0.00    +0.000 HD
ATOM      8  H   UNL     1       5.604   7.657   0.476  0.00  0.00    +0.000 HD
ATOM      9  H   UNL     1       7.742   8.549  -0.523  0.00  0.00    +0.000 HD
ENDROOT
BRANCH   3  10
ATOM     10  C   UNL     1       3.635  11.693   0.330  0.00  0.00    +0.000 C 
ATOM     11  H   UNL     1       2.990  11.288   1.116  0.00  0.00    +0.000 HD
ATOM     12  H   UNL     1       3.983  12.687   0.629  0.00  0.00    +0.000 HD
ATOM     13  H   UNL     1       3.032  11.805  -0.577  0.00  0.00    +0.000 HD
ENDBRANCH   3  10
TORSDOF 1
ENDMDL
MODEL 9
REMARK VINA RESULT:    -3.065      2.788      4.056
REMARK INTER + INTRA:          -3.154
REMARK INTER:                  -3.154
REMARK INTRA:                   0.000
REMARK UNBOUND:                 0.000
REMARK  Name = 7976
REMARK  1 active torsions:
REMARK  status: ('A' for Active; 'I' for Inactive)
REMARK    1  A    between atoms: C_3  and  C_4
REMARK                            x       y       z     vdW  Elec       q    Type
REMARK                         _______ _______ _______ _____ _____    ______ ____
ROOT
ATOM      1  N   UNL     1       7.461   9.017  -0.103  0.00  0.00    +0.000 NA
ATOM      2  N   UNL     1       5.632  11.035  -0.772  0.00  0.00    +0.000 NA
ATOM      3  C   UNL     1       7.823  10.099  -0.820  0.00  0.00    +0.000 A 
ATOM      4  C   UNL     1       6.924  11.091  -1.149  0.00  0.00    +0.000 A 
ATOM      5  C   UNL     1       6.168   8.962   0.273  0.00  0.00    +0.000 A 
ATOM      6  C   UNL     1       5.270   9.953  -0.055  0.00  0.00    +0.000 A 
ATOM      7  H   UNL     1       7.207  11.964  -1.725  0.00  0.00    +0.000 HD
ATOM      8  H   UNL     1       5.876   8.092   0.850  0.00  0.00    +0.000 HD
ATOM      9  H   UNL     1       4.231   9.907   0.248  0.00  0.00    +0.000 HD
ENDROOT
BRANCH   3  10
ATOM     10  C   UNL     1       9.244  10.194  -1.254  0.00  0.00    +0.000 C 
ATOM     11  H   UNL     1       9.303  10.325  -2.339  0.00  0.00    +0.000 HD
ATOM     12  H   UNL     1       9.736  11.042  -0.765  0.00  0.00    +0.000 HD
ATOM     13  H   UNL     1       9.797   9.286  -0.992  0.00  0.00    +0.000 HD
ENDBRANCH   3  10
TORSDOF 1
ENDMDL
MODEL 10
REMARK VINA RESULT:    -3.016      1.954      2.295
REMARK INTER + INTRA:          -3.104
REMARK INTER:                  -3.104
REMARK INTRA:                   0.000
REMARK UNBOUND:                 0.000
REMARK  Name = 7976
REMARK  1 active torsions:
REMARK  status: ('A' for Active; 'I' for Inactive)
REMARK    1  A    between atoms: C_3  and  C_4
REMARK                            x       y       z     vdW  Elec       q    Type
REMARK                         _______ _______ _______ _____ _____    ______ ____
ROOT
ATOM      1  N   UNL     1       5.108  10.277   0.583  0.00  0.00    +0.000 NA
ATOM      2  N   UNL     1       6.740   8.097   1.254  0.00  0.00    +0.000 NA
ATOM      3  C   UNL     1       6.250  10.009  -0.081  0.00  0.00    +0.000 A 
ATOM      4  C   UNL     1       7.051   8.938   0.249  0.00  0.00    +0.000 A 
ATOM      5  C   UNL     1       4.797   9.435   1.589  0.00  0.00    +0.000 A 
ATOM      6  C   UNL     1       5.598   8.365   1.918  0.00  0.00    +0.000 A 
ATOM      7  H   UNL     1       7.971   8.716  -0.280  0.00  0.00    +0.000 HD
ATOM      8  H   UNL     1       3.879   9.649   2.123  0.00  0.00    +0.000 HD
ATOM      9  H   UNL     1       5.346   7.689   2.727  0.00  0.00    +0.000 HD
ENDROOT
BRANCH   3  10
ATOM     10  C   UNL     1       6.625  10.918  -1.198  0.00  0.00    +0.000 C 
ATOM     11  H   UNL     1       5.739  11.429  -1.589  0.00  0.00    +0.000 HD
ATOM     12  H   UNL     1       7.347  11.667  -0.855  0.00  0.00    +0.000 HD
ATOM     13  H   UNL     1       7.083  10.360  -2.022  0.00  0.00    +0.000 HD
ENDBRANCH   3  10
TORSDOF 1
ENDMDL
