MODEL 1
REMARK VINA RESULT:    -4.655      0.000      0.000
REMARK INTER + INTRA:          -6.881
REMARK INTER:                  -6.215
REMARK INTRA:                  -0.666
REMARK UNBOUND:                -0.321
REMARK  Name = 13187
REMARK  8 active torsions:
REMARK  status: ('A' for Active; 'I' for Inactive)
REMARK    1  A    between atoms: C_2  and  C_3
REMARK    2  A    between atoms: C_2  and  C_4
REMARK    3  A    between atoms: C_3  and  C_5
REMARK    4  A    between atoms: C_4  and  C_6
REMARK    5  A    between atoms: C_5  and  C_7
REMARK    6  A    between atoms: C_6  and  C_8
REMARK    7  A    between atoms: C_7  and  C_9
REMARK    8  A    between atoms: C_9  and  C_10
REMARK                            x       y       z     vdW  Elec       q    Type
REMARK                         _______ _______ _______ _____ _____    ______ ____
ROOT
ATOM      1  C   UNL     1       5.266   8.574   2.044  0.00  0.00    +0.000 C 
ATOM      2  H   UNL     1       4.893   7.713   2.610  0.00  0.00    +0.000 HD
ATOM      3  H   UNL     1       5.405   9.395   2.758  0.00  0.00    +0.000 HD
ENDROOT
BRANCH   1   4
ATOM      4  C   UNL     1       6.609   8.225   1.398  0.00  0.00    +0.000 C 
ATOM      5  H   UNL     1       6.445   7.541   0.556  0.00  0.00    +0.000 HD
ATOM      6  H   UNL     1       7.239   7.698   2.125  0.00  0.00    +0.000 HD
BRANCH   4   7
ATOM      7  C   UNL     1       7.333   9.480   0.908  0.00  0.00    +0.000 C 
ATOM      8  H   UNL     1       8.300   9.571   1.418  0.00  0.00    +0.000 HD
ATOM      9  H   UNL     1       6.745  10.368   1.170  0.00  0.00    +0.000 HD
BRANCH   7  10
ATOM     10  C   UNL     1       7.555   9.438  -0.603  0.00  0.00    +0.000 C 
ATOM     11  H   UNL     1       6.837   8.752  -1.067  0.00  0.00    +0.000 HD
ATOM     12  H   UNL     1       8.559   9.055  -0.823  0.00  0.00    +0.000 HD
BRANCH  10  13
ATOM     13  C   UNL     1       7.399  10.816  -1.228  0.00  0.00    +0.000 C 
ATOM     14  H   UNL     1       8.348  11.362  -1.215  0.00  0.00    +0.000 HD
ATOM     15  H   UNL     1       6.654  11.409  -0.689  0.00  0.00    +0.000 HD
ATOM     16  H   UNL     1       7.073  10.726  -2.269  0.00  0.00    +0.000 HD
ENDBRANCH  10  13
ENDBRANCH   7  10
ENDBRANCH   4   7
ENDBRANCH   1   4
BRANCH   1  17
ATOM     17  C   UNL     1       4.232   8.978   0.990  0.00  0.00    +0.000 C 
ATOM     18  H   UNL     1       4.702   8.979  -0.002  0.00  0.00    +0.000 HD
ATOM     19  H   UNL     1       3.434   8.226   0.958  0.00  0.00    +0.000 HD
BRANCH  17  20
ATOM     20  C   UNL     1       3.626  10.352   1.263  0.00  0.00    +0.000 C 
ATOM     21  H   UNL     1       2.533  10.285   1.264  0.00  0.00    +0.000 HD
ATOM     22  H   UNL     1       3.954  10.713   2.244  0.00  0.00    +0.000 HD
BRANCH  20  24
ATOM     23  O   UNL     1       4.695  12.373   0.542  0.00  0.00    +0.000 OA
ATOM     24  C   UNL     1       4.023  11.389   0.231  0.00  0.00    +0.000 C 
BRANCH  24  25
ATOM     25  C   UNL     1       3.550  11.182  -1.184  0.00  0.00    +0.000 C 
ATOM     26  H   UNL     1       4.098  11.847  -1.858  0.00  0.00    +0.000 HD
ATOM     27  H   UNL     1       2.483  11.411  -1.249  0.00  0.00    +0.000 HD
ATOM     28  H   UNL     1       3.732  10.147  -1.482  0.00  0.00    +0.000 HD
ENDBRANCH  24  25
ENDBRANCH  20  24
ENDBRANCH  17  20
ENDBRANCH   1  17
TORSDOF 8
ENDMDL
MODEL 2
REMARK VINA RESULT:    -4.615      2.000      3.061
REMARK INTER + INTRA:          -6.825
REMARK INTER:                  -6.493
REMARK INTRA:                  -0.332
REMARK UNBOUND:                -0.321
REMARK  Name = 13187
REMARK  8 active torsions:
REMARK  status: ('A' for Active; 'I' for Inactive)
REMARK    1  A    between atoms: C_2  and  C_3
REMARK    2  A    between atoms: C_2  and  C_4
REMARK    3  A    between atoms: C_3  and  C_5
REMARK    4  A    between atoms: C_4  and  C_6
REMARK    5  A    between atoms: C_5  and  C_7
REMARK    6  A    between atoms: C_6  and  C_8
REMARK    7  A    between atoms: C_7  and  C_9
REMARK    8  A    between atoms: C_9  and  C_10
REMARK                            x       y       z     vdW  Elec       q    Type
REMARK                         _______ _______ _______ _____ _____    ______ ____
ROOT
ATOM      1  C   UNL     1       4.512   8.689   2.946  0.00  0.00    +0.000 C 
ATOM      2  H   UNL     1       4.238   7.928   3.686  0.00  0.00    +0.000 HD
ATOM      3  H   UNL     1       4.720   9.615   3.496  0.00  0.00    +0.000 HD
ENDROOT
BRANCH   1   4
ATOM      4  C   UNL     1       5.769   8.248   2.192  0.00  0.00    +0.000 C 
ATOM      5  H   UNL     1       5.880   8.845   1.280  0.00  0.00    +0.000 HD
ATOM      6  H   UNL     1       5.660   7.201   1.882  0.00  0.00    +0.000 HD
BRANCH   4   7
ATOM      7  C   UNL     1       7.019   8.396   3.061  0.00  0.00    +0.000 C 
ATOM      8  H   UNL     1       7.338   9.446   3.071  0.00  0.00    +0.000 HD
ATOM      9  H   UNL     1       7.839   7.813   2.625  0.00  0.00    +0.000 HD
BRANCH   7  10
ATOM     10  C   UNL     1       6.759   7.928   4.492  0.00  0.00    +0.000 C 
ATOM     11  H   UNL     1       7.115   6.899   4.618  0.00  0.00    +0.000 HD
ATOM     12  H   UNL     1       5.681   7.926   4.694  0.00  0.00    +0.000 HD
BRANCH  10  13
ATOM     13  C   UNL     1       7.456   8.822   5.506  0.00  0.00    +0.000 C 
ATOM     14  H   UNL     1       8.223   9.437   5.024  0.00  0.00    +0.000 HD
ATOM     15  H   UNL     1       7.934   8.227   6.290  0.00  0.00    +0.000 HD
ATOM     16  H   UNL     1       6.732   9.493   5.981  0.00  0.00    +0.000 HD
ENDBRANCH  10  13
ENDBRANCH   7  10
ENDBRANCH   4   7
ENDBRANCH   1   4
BRANCH   1  17
ATOM     17  C   UNL     1       3.340   8.913   1.987  0.00  0.00    +0.000 C 
ATOM     18  H   UNL     1       2.732   8.001   1.933  0.00  0.00    +0.000 HD
ATOM     19  H   UNL     1       2.688   9.700   2.388  0.00  0.00    +0.000 HD
BRANCH  17  20
ATOM     20  C   UNL     1       3.799   9.298   0.584  0.00  0.00    +0.000 C 
ATOM     21  H   UNL     1       4.875   9.120   0.480  0.00  0.00    +0.000 HD
ATOM     22  H   UNL     1       3.273   8.686  -0.158  0.00  0.00    +0.000 HD
BRANCH  20  24
ATOM     23  O   UNL     1       3.335  11.583   1.141  0.00  0.00    +0.000 OA
ATOM     24  C   UNL     1       3.539  10.754   0.253  0.00  0.00    +0.000 C 
BRANCH  24  25
ATOM     25  C   UNL     1       3.522  11.147  -1.200  0.00  0.00    +0.000 C 
ATOM     26  H   UNL     1       2.628  11.740  -1.413  0.00  0.00    +0.000 HD
ATOM     27  H   UNL     1       3.508  10.248  -1.822  0.00  0.00    +0.000 HD
ATOM     28  H   UNL     1       4.407  11.748  -1.427  0.00  0.00    +0.000 HD
ENDBRANCH  24  25
ENDBRANCH  20  24
ENDBRANCH  17  20
ENDBRANCH   1  17
TORSDOF 8
ENDMDL
MODEL 3
REMARK VINA RESULT:    -4.515      1.922      3.830
REMARK INTER + INTRA:          -6.684
REMARK INTER:                  -6.020
REMARK INTRA:                  -0.664
REMARK UNBOUND:                -0.321
REMARK  Name = 13187
REMARK  8 active torsions:
REMARK  status: ('A' for Active; 'I' for Inactive)
REMARK    1  A    between atoms: C_2  and  C_3
REMARK    2  A    between atoms: C_2  and  C_4
REMARK    3  A    between atoms: C_3  and  C_5
REMARK    4  A    between atoms: C_4  and  C_6
REMARK    5  A    between atoms: C_5  and  C_7
REMARK    6  A    between atoms: C_6  and  C_8
REMARK    7  A    between atoms: C_7  and  C_9
REMARK    8  A    between atoms: C_9  and  C_10
REMARK                            x       y       z     vdW  Elec       q    Type
REMARK                         _______ _______ _______ _____ _____    ______ ____
ROOT
ATOM      1  C   UNL     1       4.909   8.783   1.386  0.00  0.00    +0.000 C 
ATOM      2  H   UNL     1       4.781   9.110   2.425  0.00  0.00    +0.000 HD
ATOM      3  H   UNL     1       4.665   7.715   1.349  0.00  0.00    +0.000 HD
ENDROOT
BRANCH   1   4
ATOM      4  C   UNL     1       3.953   9.560   0.478  0.00  0.00    +0.000 C 
ATOM      5  H   UNL     1       2.939   9.154   0.578  0.00  0.00    +0.000 HD
ATOM      6  H   UNL     1       4.253   9.425  -0.568  0.00  0.00    +0.000 HD
BRANCH   4   7
ATOM      7  C   UNL     1       3.948  11.050   0.822  0.00  0.00    +0.000 C 
ATOM      8  H   UNL     1       4.979  11.405   0.937  0.00  0.00    +0.000 HD
ATOM      9  H   UNL     1       3.443  11.202   1.783  0.00  0.00    +0.000 HD
BRANCH   7  10
ATOM     10  C   UNL     1       3.246  11.867  -0.262  0.00  0.00    +0.000 C 
ATOM     11  H   UNL     1       3.731  12.844  -0.366  0.00  0.00    +0.000 HD
ATOM     12  H   UNL     1       2.204  12.051   0.025  0.00  0.00    +0.000 HD
BRANCH  10  13
ATOM     13  C   UNL     1       3.275  11.153  -1.605  0.00  0.00    +0.000 C 
ATOM     14  H   UNL     1       2.491  10.392  -1.661  0.00  0.00    +0.000 HD
ATOM     15  H   UNL     1       4.241  10.666  -1.769  0.00  0.00    +0.000 HD
ATOM     16  H   UNL     1       3.112  11.869  -2.418  0.00  0.00    +0.000 HD
ENDBRANCH  10  13
ENDBRANCH   7  10
ENDBRANCH   4   7
ENDBRANCH   1   4
BRANCH   1  17
ATOM     17  C   UNL     1       6.367   8.991   0.964  0.00  0.00    +0.000 C 
ATOM     18  H   UNL     1       6.618  10.057   1.029  0.00  0.00    +0.000 HD
ATOM     19  H   UNL     1       7.027   8.470   1.669  0.00  0.00    +0.000 HD
BRANCH  17  20
ATOM     20  C   UNL     1       6.641   8.494  -0.452  0.00  0.00    +0.000 C 
ATOM     21  H   UNL     1       7.202   7.553  -0.416  0.00  0.00    +0.000 HD
ATOM     22  H   UNL     1       5.693   8.313  -0.971  0.00  0.00    +0.000 HD
BRANCH  20  24
ATOM     23  O   UNL     1       8.396   9.106  -1.967  0.00  0.00    +0.000 OA
ATOM     24  C   UNL     1       7.443   9.478  -1.281  0.00  0.00    +0.000 C 
BRANCH  24  25
ATOM     25  C   UNL     1       7.044  10.929  -1.220  0.00  0.00    +0.000 C 
ATOM     26  H   UNL     1       5.962  11.009  -1.081  0.00  0.00    +0.000 HD
ATOM     27  H   UNL     1       7.319  11.422  -2.156  0.00  0.00    +0.000 HD
ATOM     28  H   UNL     1       7.546  11.411  -0.378  0.00  0.00    +0.000 HD
ENDBRANCH  24  25
ENDBRANCH  20  24
ENDBRANCH  17  20
ENDBRANCH   1  17
TORSDOF 8
ENDMDL
MODEL 4
REMARK VINA RESULT:    -4.508      1.441      3.008
REMARK INTER + INTRA:          -6.674
REMARK INTER:                  -6.342
REMARK INTRA:                  -0.331
REMARK UNBOUND:                -0.321
REMARK  Name = 13187
REMARK  8 active torsions:
REMARK  status: ('A' for Active; 'I' for Inactive)
REMARK    1  A    between atoms: C_2  and  C_3
REMARK    2  A    between atoms: C_2  and  C_4
REMARK    3  A    between atoms: C_3  and  C_5
REMARK    4  A    between atoms: C_4  and  C_6
REMARK    5  A    between atoms: C_5  and  C_7
REMARK    6  A    between atoms: C_6  and  C_8
REMARK    7  A    between atoms: C_7  and  C_9
REMARK    8  A    between atoms: C_9  and  C_10
REMARK                            x       y       z     vdW  Elec       q    Type
REMARK                         _______ _______ _______ _____ _____    ______ ____
ROOT
ATOM      1  C   UNL     1       5.570   9.215   0.846  0.00  0.00    +0.000 C 
ATOM      2  H   UNL     1       4.807   8.644   0.305  0.00  0.00    +0.000 HD
ATOM      3  H   UNL     1       5.087   9.645   1.732  0.00  0.00    +0.000 HD
ENDROOT
BRANCH   1   4
ATOM      4  C   UNL     1       6.701   8.280   1.283  0.00  0.00    +0.000 C 
ATOM      5  H   UNL     1       7.623   8.545   0.753  0.00  0.00    +0.000 HD
ATOM      6  H   UNL     1       6.451   7.249   1.002  0.00  0.00    +0.000 HD
BRANCH   4   7
ATOM      7  C   UNL     1       6.934   8.357   2.792  0.00  0.00    +0.000 C 
ATOM      8  H   UNL     1       7.429   9.304   3.041  0.00  0.00    +0.000 HD
ATOM      9  H   UNL     1       7.608   7.549   3.101  0.00  0.00    +0.000 HD
BRANCH   7  10
ATOM     10  C   UNL     1       5.619   8.252   3.563  0.00  0.00    +0.000 C 
ATOM     11  H   UNL     1       4.834   8.812   3.041  0.00  0.00    +0.000 HD
ATOM     12  H   UNL     1       5.731   8.703   4.557  0.00  0.00    +0.000 HD
BRANCH  10  13
ATOM     13  C   UNL     1       5.177   6.805   3.718  0.00  0.00    +0.000 C 
ATOM     14  H   UNL     1       5.577   6.371   4.640  0.00  0.00    +0.000 HD
ATOM     15  H   UNL     1       5.520   6.198   2.875  0.00  0.00    +0.000 HD
ATOM     16  H   UNL     1       4.085   6.745   3.759  0.00  0.00    +0.000 HD
ENDBRANCH  10  13
ENDBRANCH   7  10
ENDBRANCH   4   7
ENDBRANCH   1   4
BRANCH   1  17
ATOM     17  C   UNL     1       6.096  10.340  -0.050  0.00  0.00    +0.000 C 
ATOM     18  H   UNL     1       7.174  10.465   0.115  0.00  0.00    +0.000 HD
ATOM     19  H   UNL     1       5.972  10.054  -1.102  0.00  0.00    +0.000 HD
BRANCH  17  20
ATOM     20  C   UNL     1       5.390  11.668   0.205  0.00  0.00    +0.000 C 
ATOM     21  H   UNL     1       5.615  12.023   1.217  0.00  0.00    +0.000 HD
ATOM     22  H   UNL     1       5.740  12.417  -0.513  0.00  0.00    +0.000 HD
BRANCH  20  24
ATOM     23  O   UNL     1       3.147  11.739   1.049  0.00  0.00    +0.000 OA
ATOM     24  C   UNL     1       3.882  11.571   0.076  0.00  0.00    +0.000 C 
BRANCH  24  25
ATOM     25  C   UNL     1       3.318  11.246  -1.282  0.00  0.00    +0.000 C 
ATOM     26  H   UNL     1       3.597  10.227  -1.564  0.00  0.00    +0.000 HD
ATOM     27  H   UNL     1       3.722  11.942  -2.022  0.00  0.00    +0.000 HD
ATOM     28  H   UNL     1       2.228  11.320  -1.252  0.00  0.00    +0.000 HD
ENDBRANCH  24  25
ENDBRANCH  20  24
ENDBRANCH  17  20
ENDBRANCH   1  17
TORSDOF 8
ENDMDL
MODEL 5
REMARK VINA RESULT:    -4.425      1.415      2.002
REMARK INTER + INTRA:          -6.557
REMARK INTER:                  -6.079
REMARK INTRA:                  -0.478
REMARK UNBOUND:                -0.321
REMARK  Name = 13187
REMARK  8 active torsions:
REMARK  status: ('A' for Active; 'I' for Inactive)
REMARK    1  A    between atoms: C_2  and  C_3
REMARK    2  A    between atoms: C_2  and  C_4
REMARK    3  A    between atoms: C_3  and  C_5
REMARK    4  A    between atoms: C_4  and  C_6
REMARK    5  A    between atoms: C_5  and  C_7
REMARK    6  A    between atoms: C_6  and  C_8
REMARK    7  A    between atoms: C_7  and  C_9
REMARK    8  A    between atoms: C_9  and  C_10
REMARK                            x       y       z     vdW  Elec       q    Type
REMARK                         _______ _______ _______ _____ _____    ______ ____
ROOT
ATOM      1  C   UNL     1       6.638   8.250   0.323  0.00  0.00    +0.000 C 
ATOM      2  H   UNL     1       7.104   8.566  -0.618  0.00  0.00    +0.000 HD
ATOM      3  H   UNL     1       6.802   7.170   0.419  0.00  0.00    +0.000 HD
ENDROOT
BRANCH   1   4
ATOM      4  C   UNL     1       7.300   8.976   1.496  0.00  0.00    +0.000 C 
ATOM      5  H   UNL     1       7.696   8.242   2.208  0.00  0.00    +0.000 HD
ATOM      6  H   UNL     1       6.548   9.570   2.029  0.00  0.00    +0.000 HD
BRANCH   4   7
ATOM      7  C   UNL     1       8.429   9.890   1.018  0.00  0.00    +0.000 C 
ATOM      8  H   UNL     1       9.393   9.495   1.360  0.00  0.00    +0.000 HD
ATOM      9  H   UNL     1       8.310  10.885   1.465  0.00  0.00    +0.000 HD
BRANCH   7  10
ATOM     10  C   UNL     1       8.439  10.010  -0.506  0.00  0.00    +0.000 C 
ATOM     11  H   UNL     1       7.886  10.905  -0.813  0.00  0.00    +0.000 HD
ATOM     12  H   UNL     1       7.931   9.146  -0.951  0.00  0.00    +0.000 HD
BRANCH  10  13
ATOM     13  C   UNL     1       9.857  10.091  -1.049  0.00  0.00    +0.000 C 
ATOM     14  H   UNL     1      10.185   9.120  -1.433  0.00  0.00    +0.000 HD
ATOM     15  H   UNL     1      10.558  10.408  -0.271  0.00  0.00    +0.000 HD
ATOM     16  H   UNL     1       9.908  10.815  -1.868  0.00  0.00    +0.000 HD
ENDBRANCH  10  13
ENDBRANCH   7  10
ENDBRANCH   4   7
ENDBRANCH   1   4
BRANCH   1  17
ATOM     17  C   UNL     1       5.135   8.539   0.269  0.00  0.00    +0.000 C 
ATOM     18  H   UNL     1       4.702   8.059  -0.618  0.00  0.00    +0.000 HD
ATOM     19  H   UNL     1       4.647   8.083   1.140  0.00  0.00    +0.000 HD
BRANCH  17  20
ATOM     20  C   UNL     1       4.827  10.033   0.235  0.00  0.00    +0.000 C 
ATOM     21  H   UNL     1       5.739  10.607   0.436  0.00  0.00    +0.000 HD
ATOM     22  H   UNL     1       4.453  10.311  -0.756  0.00  0.00    +0.000 HD
BRANCH  20  24
ATOM     23  O   UNL     1       3.220  11.537   1.183  0.00  0.00    +0.000 OA
ATOM     24  C   UNL     1       3.788  10.447   1.257  0.00  0.00    +0.000 C 
BRANCH  24  25
ATOM     25  C   UNL     1       3.487   9.484   2.376  0.00  0.00    +0.000 C 
ATOM     26  H   UNL     1       3.483   8.460   1.992  0.00  0.00    +0.000 HD
ATOM     27  H   UNL     1       2.504   9.710   2.798  0.00  0.00    +0.000 HD
ATOM     28  H   UNL     1       4.256   9.570   3.148  0.00  0.00    +0.000 HD
ENDBRANCH  24  25
ENDBRANCH  20  24
ENDBRANCH  17  20
ENDBRANCH   1  17
TORSDOF 8
ENDMDL
MODEL 6
REMARK VINA RESULT:    -4.349     13.691     15.398
REMARK INTER + INTRA:          -6.450
REMARK INTER:                  -6.195
REMARK INTRA:                  -0.254
REMARK UNBOUND:                -0.321
REMARK  Name = 13187
REMARK  8 active torsions:
REMARK  status: ('A' for Active; 'I' for Inactive)
REMARK    1  A    between atoms: C_2  and  C_3
REMARK    2  A    between atoms: C_2  and  C_4
REMARK    3  A    between atoms: C_3  and  C_5
REMARK    4  A    between atoms: C_4  and  C_6
REMARK    5  A    between atoms: C_5  and  C_7
REMARK    6  A    between atoms: C_6  and  C_8
REMARK    7  A    between atoms: C_7  and  C_9
REMARK    8  A    between atoms: C_9  and  C_10
REMARK                            x       y       z     vdW  Elec       q    Type
REMARK                         _______ _______ _______ _____ _____    ______ ____
ROOT
ATOM      1  C   UNL     1      -8.248  11.084   7.036  0.00  0.00    +0.000 C 
ATOM      2  H   UNL     1      -7.184  10.940   7.254  0.00  0.00    +0.000 HD
ATOM      3  H   UNL     1      -8.521  12.085   7.392  0.00  0.00    +0.000 HD
ENDROOT
BRANCH   1   4
ATOM      4  C   UNL     1      -8.482  10.995   5.526  0.00  0.00    +0.000 C 
ATOM      5  H   UNL     1      -9.403  11.531   5.264  0.00  0.00    +0.000 HD
ATOM      6  H   UNL     1      -8.627   9.946   5.239  0.00  0.00    +0.000 HD
BRANCH   4   7
ATOM      7  C   UNL     1      -7.305  11.582   4.746  0.00  0.00    +0.000 C 
ATOM      8  H   UNL     1      -7.353  11.250   3.701  0.00  0.00    +0.000 HD
ATOM      9  H   UNL     1      -6.364  11.203   5.163  0.00  0.00    +0.000 HD
BRANCH   7  10
ATOM     10  C   UNL     1      -7.312  13.109   4.796  0.00  0.00    +0.000 C 
ATOM     11  H   UNL     1      -8.129  13.457   5.439  0.00  0.00    +0.000 HD
ATOM     12  H   UNL     1      -7.493  13.515   3.793  0.00  0.00    +0.000 HD
BRANCH  10  13
ATOM     13  C   UNL     1      -5.995  13.656   5.325  0.00  0.00    +0.000 C 
ATOM     14  H   UNL     1      -5.358  12.848   5.700  0.00  0.00    +0.000 HD
ATOM     15  H   UNL     1      -6.165  14.366   6.140  0.00  0.00    +0.000 HD
ATOM     16  H   UNL     1      -5.453  14.175   4.529  0.00  0.00    +0.000 HD
ENDBRANCH  10  13
ENDBRANCH   7  10
ENDBRANCH   4   7
ENDBRANCH   1   4
BRANCH   1  17
ATOM     17  C   UNL     1      -9.069  10.031   7.787  0.00  0.00    +0.000 C 
ATOM     18  H   UNL     1      -9.507  10.483   8.686  0.00  0.00    +0.000 HD
ATOM     19  H   UNL     1      -9.908   9.709   7.158  0.00  0.00    +0.000 HD
BRANCH  17  20
ATOM     20  C   UNL     1      -8.235   8.817   8.187  0.00  0.00    +0.000 C 
ATOM     21  H   UNL     1      -8.793   7.897   7.981  0.00  0.00    +0.000 HD
ATOM     22  H   UNL     1      -7.307   8.798   7.605  0.00  0.00    +0.000 HD
BRANCH  20  24
ATOM     23  O   UNL     1      -8.438   8.075  10.457  0.00  0.00    +0.000 OA
ATOM     24  C   UNL     1      -7.863   8.812   9.656  0.00  0.00    +0.000 C 
BRANCH  24  25
ATOM     25  C   UNL     1      -6.775   9.754  10.103  0.00  0.00    +0.000 C 
ATOM     26  H   UNL     1      -7.190  10.755  10.248  0.00  0.00    +0.000 HD
ATOM     27  H   UNL     1      -5.995   9.799   9.339  0.00  0.00    +0.000 HD
ATOM     28  H   UNL     1      -6.356   9.404  11.050  0.00  0.00    +0.000 HD
ENDBRANCH  24  25
ENDBRANCH  20  24
ENDBRANCH  17  20
ENDBRANCH   1  17
TORSDOF 8
ENDMDL
MODEL 7
REMARK VINA RESULT:    -4.278     12.850     14.247
REMARK INTER + INTRA:          -6.349
REMARK INTER:                  -6.028
REMARK INTRA:                  -0.321
REMARK UNBOUND:                -0.321
REMARK  Name = 13187
REMARK  8 active torsions:
REMARK  status: ('A' for Active; 'I' for Inactive)
REMARK    1  A    between atoms: C_2  and  C_3
REMARK    2  A    between atoms: C_2  and  C_4
REMARK    3  A    between atoms: C_3  and  C_5
REMARK    4  A    between atoms: C_4  and  C_6
REMARK    5  A    between atoms: C_5  and  C_7
REMARK    6  A    between atoms: C_6  and  C_8
REMARK    7  A    between atoms: C_7  and  C_9
REMARK    8  A    between atoms: C_9  and  C_10
REMARK                            x       y       z     vdW  Elec       q    Type
REMARK                         _______ _______ _______ _____ _____    ______ ____
ROOT
ATOM      1  C   UNL     1      -2.937   9.778  -9.293  0.00  0.00    +0.000 C 
ATOM      2  H   UNL     1      -3.922  10.256  -9.249  0.00  0.00    +0.000 HD
ATOM      3  H   UNL     1      -2.231  10.441  -8.778  0.00  0.00    +0.000 HD
ENDROOT
BRANCH   1   4
ATOM      4  C   UNL     1      -2.986   8.426  -8.578  0.00  0.00    +0.000 C 
ATOM      5  H   UNL     1      -3.883   8.374  -7.950  0.00  0.00    +0.000 HD
ATOM      6  H   UNL     1      -2.119   8.333  -7.913  0.00  0.00    +0.000 HD
BRANCH   4   7
ATOM      7  C   UNL     1      -2.990   7.269  -9.578  0.00  0.00    +0.000 C 
ATOM      8  H   UNL     1      -2.321   6.474  -9.226  0.00  0.00    +0.000 HD
ATOM      9  H   UNL     1      -2.600   7.616 -10.543  0.00  0.00    +0.000 HD
BRANCH   7  10
ATOM     10  C   UNL     1      -4.398   6.704  -9.767  0.00  0.00    +0.000 C 
ATOM     11  H   UNL     1      -5.106   7.248  -9.133  0.00  0.00    +0.000 HD
ATOM     12  H   UNL     1      -4.423   5.653  -9.455  0.00  0.00    +0.000 HD
BRANCH  10  13
ATOM     13  C   UNL     1      -4.849   6.806 -11.216  0.00  0.00    +0.000 C 
ATOM     14  H   UNL     1      -4.425   5.994 -11.816  0.00  0.00    +0.000 HD
ATOM     15  H   UNL     1      -4.540   7.758 -11.657  0.00  0.00    +0.000 HD
ATOM     16  H   UNL     1      -5.940   6.740 -11.278  0.00  0.00    +0.000 HD
ENDBRANCH  10  13
ENDBRANCH   7  10
ENDBRANCH   4   7
ENDBRANCH   1   4
BRANCH   1  17
ATOM     17  C   UNL     1      -2.514   9.617 -10.757  0.00  0.00    +0.000 C 
ATOM     18  H   UNL     1      -2.556   8.556 -11.034  0.00  0.00    +0.000 HD
ATOM     19  H   UNL     1      -3.234  10.138 -11.401  0.00  0.00    +0.000 HD
BRANCH  17  20
ATOM     20  C   UNL     1      -1.111  10.153 -11.022  0.00  0.00    +0.000 C 
ATOM     21  H   UNL     1      -1.108  11.247 -10.948  0.00  0.00    +0.000 HD
ATOM     22  H   UNL     1      -0.415   9.753 -10.276  0.00  0.00    +0.000 HD
BRANCH  20  24
ATOM     23  O   UNL     1      -0.071   8.683 -12.604  0.00  0.00    +0.000 OA
ATOM     24  C   UNL     1      -0.585   9.782 -12.394  0.00  0.00    +0.000 C 
BRANCH  24  25
ATOM     25  C   UNL     1      -0.696  10.813 -13.486  0.00  0.00    +0.000 C 
ATOM     26  H   UNL     1      -0.693  10.320 -14.462  0.00  0.00    +0.000 HD
ATOM     27  H   UNL     1       0.155  11.498 -13.431  0.00  0.00    +0.000 HD
ATOM     28  H   UNL     1      -1.632  11.366 -13.372  0.00  0.00    +0.000 HD
ENDBRANCH  24  25
ENDBRANCH  20  24
ENDBRANCH  17  20
ENDBRANCH   1  17
TORSDOF 8
ENDMDL
MODEL 8
REMARK VINA RESULT:    -4.271      2.238      3.549
REMARK INTER + INTRA:          -6.339
REMARK INTER:                  -5.843
REMARK INTRA:                  -0.496
REMARK UNBOUND:                -0.321
REMARK  Name = 13187
REMARK  8 active torsions:
REMARK  status: ('A' for Active; 'I' for Inactive)
REMARK    1  A    between atoms: C_2  and  C_3
REMARK    2  A    between atoms: C_2  and  C_4
REMARK    3  A    between atoms: C_3  and  C_5
REMARK    4  A    between atoms: C_4  and  C_6
REMARK    5  A    between atoms: C_5  and  C_7
REMARK    6  A    between atoms: C_6  and  C_8
REMARK    7  A    between atoms: C_7  and  C_9
REMARK    8  A    between atoms: C_9  and  C_10
REMARK                            x       y       z     vdW  Elec       q    Type
REMARK                         _______ _______ _______ _____ _____    ______ ____
ROOT
ATOM      1  C   UNL     1       7.697   9.077   1.994  0.00  0.00    +0.000 C 
ATOM      2  H   UNL     1       8.458   8.451   2.475  0.00  0.00    +0.000 HD
ATOM      3  H   UNL     1       7.289   9.742   2.765  0.00  0.00    +0.000 HD
ENDROOT
BRANCH   1   4
ATOM      4  C   UNL     1       8.340   9.912   0.884  0.00  0.00    +0.000 C 
ATOM      5  H   UNL     1       9.418   9.712   0.850  0.00  0.00    +0.000 HD
ATOM      6  H   UNL     1       8.216  10.977   1.110  0.00  0.00    +0.000 HD
BRANCH   4   7
ATOM      7  C   UNL     1       7.716   9.601  -0.477  0.00  0.00    +0.000 C 
ATOM      8  H   UNL     1       6.907   8.871  -0.354  0.00  0.00    +0.000 HD
ATOM      9  H   UNL     1       8.469   9.143  -1.130  0.00  0.00    +0.000 HD
BRANCH   7  10
ATOM     10  C   UNL     1       7.165  10.865  -1.136  0.00  0.00    +0.000 C 
ATOM     11  H   UNL     1       6.513  10.594  -1.974  0.00  0.00    +0.000 HD
ATOM     12  H   UNL     1       7.989  11.462  -1.546  0.00  0.00    +0.000 HD
BRANCH  10  13
ATOM     13  C   UNL     1       6.378  11.712  -0.148  0.00  0.00    +0.000 C 
ATOM     14  H   UNL     1       5.624  11.110   0.370  0.00  0.00    +0.000 HD
ATOM     15  H   UNL     1       5.869  12.537  -0.656  0.00  0.00    +0.000 HD
ATOM     16  H   UNL     1       7.049  12.137   0.605  0.00  0.00    +0.000 HD
ENDBRANCH  10  13
ENDBRANCH   7  10
ENDBRANCH   4   7
ENDBRANCH   1   4
BRANCH   1  17
ATOM     17  C   UNL     1       6.581   8.186   1.442  0.00  0.00    +0.000 C 
ATOM     18  H   UNL     1       6.586   8.231   0.345  0.00  0.00    +0.000 HD
ATOM     19  H   UNL     1       6.783   7.142   1.712  0.00  0.00    +0.000 HD
BRANCH  17  20
ATOM     20  C   UNL     1       5.203   8.589   1.958  0.00  0.00    +0.000 C 
ATOM     21  H   UNL     1       5.095   9.679   1.925  0.00  0.00    +0.000 HD
ATOM     22  H   UNL     1       4.426   8.143   1.326  0.00  0.00    +0.000 HD
BRANCH  20  24
ATOM     23  O   UNL     1       4.572   8.940   4.243  0.00  0.00    +0.000 OA
ATOM     24  C   UNL     1       4.951   8.144   3.385  0.00  0.00    +0.000 C 
BRANCH  24  25
ATOM     25  C   UNL     1       5.200   6.696   3.718  0.00  0.00    +0.000 C 
ATOM     26  H   UNL     1       4.993   6.074   2.843  0.00  0.00    +0.000 HD
ATOM     27  H   UNL     1       4.540   6.391   4.535  0.00  0.00    +0.000 HD
ATOM     28  H   UNL     1       6.245   6.562   4.009  0.00  0.00    +0.000 HD
ENDBRANCH  24  25
ENDBRANCH  20  24
ENDBRANCH  17  20
ENDBRANCH   1  17
TORSDOF 8
ENDMDL
MODEL 9
REMARK VINA RESULT:    -4.247     13.154     14.775
REMARK INTER + INTRA:          -6.306
REMARK INTER:                  -5.797
REMARK INTRA:                  -0.509
REMARK UNBOUND:                -0.321
REMARK  Name = 13187
REMARK  8 active torsions:
REMARK  status: ('A' for Active; 'I' for Inactive)
REMARK    1  A    between atoms: C_2  and  C_3
REMARK    2  A    between atoms: C_2  and  C_4
REMARK    3  A    between atoms: C_3  and  C_5
REMARK    4  A    between atoms: C_4  and  C_6
REMARK    5  A    between atoms: C_5  and  C_7
REMARK    6  A    between atoms: C_6  and  C_8
REMARK    7  A    between atoms: C_7  and  C_9
REMARK    8  A    between atoms: C_9  and  C_10
REMARK                            x       y       z     vdW  Elec       q    Type
REMARK                         _______ _______ _______ _____ _____    ______ ____
ROOT
ATOM      1  C   UNL     1      -3.075   7.055 -12.092  0.00  0.00    +0.000 C 
ATOM      2  H   UNL     1      -3.444   6.289 -12.784  0.00  0.00    +0.000 HD
ATOM      3  H   UNL     1      -3.191   8.025 -12.590  0.00  0.00    +0.000 HD
ENDROOT
BRANCH   1   4
ATOM      4  C   UNL     1      -3.908   7.036 -10.808  0.00  0.00    +0.000 C 
ATOM      5  H   UNL     1      -4.623   6.205 -10.845  0.00  0.00    +0.000 HD
ATOM      6  H   UNL     1      -4.491   7.962 -10.736  0.00  0.00    +0.000 HD
BRANCH   4   7
ATOM      7  C   UNL     1      -3.019   6.894  -9.572  0.00  0.00    +0.000 C 
ATOM      8  H   UNL     1      -1.969   6.820  -9.878  0.00  0.00    +0.000 HD
ATOM      9  H   UNL     1      -3.269   5.965  -9.045  0.00  0.00    +0.000 HD
BRANCH   7  10
ATOM     10  C   UNL     1      -3.190   8.083  -8.626  0.00  0.00    +0.000 C 
ATOM     11  H   UNL     1      -2.766   7.842  -7.644  0.00  0.00    +0.000 HD
ATOM     12  H   UNL     1      -4.257   8.290  -8.476  0.00  0.00    +0.000 HD
BRANCH  10  13
ATOM     13  C   UNL     1      -2.510   9.329  -9.169  0.00  0.00    +0.000 C 
ATOM     14  H   UNL     1      -2.588  10.159  -8.459  0.00  0.00    +0.000 HD
ATOM     15  H   UNL     1      -2.962   9.642 -10.115  0.00  0.00    +0.000 HD
ATOM     16  H   UNL     1      -1.447   9.134  -9.347  0.00  0.00    +0.000 HD
ENDBRANCH  10  13
ENDBRANCH   7  10
ENDBRANCH   4   7
ENDBRANCH   1   4
BRANCH   1  17
ATOM     17  C   UNL     1      -1.594   6.804 -11.796  0.00  0.00    +0.000 C 
ATOM     18  H   UNL     1      -1.471   6.549 -10.736  0.00  0.00    +0.000 HD
ATOM     19  H   UNL     1      -1.252   5.933 -12.368  0.00  0.00    +0.000 HD
BRANCH  17  20
ATOM     20  C   UNL     1      -0.719   8.009 -12.130  0.00  0.00    +0.000 C 
ATOM     21  H   UNL     1      -0.822   8.773 -11.351  0.00  0.00    +0.000 HD
ATOM     22  H   UNL     1       0.331   7.701 -12.178  0.00  0.00    +0.000 HD
BRANCH  20  24
ATOM     23  O   UNL     1      -0.925   8.047 -14.517  0.00  0.00    +0.000 OA
ATOM     24  C   UNL     1      -1.076   8.651 -13.455  0.00  0.00    +0.000 C 
BRANCH  24  25
ATOM     25  C   UNL     1      -1.607  10.060 -13.427  0.00  0.00    +0.000 C 
ATOM     26  H   UNL     1      -1.478  10.524 -14.409  0.00  0.00    +0.000 HD
ATOM     27  H   UNL     1      -1.056  10.643 -12.683  0.00  0.00    +0.000 HD
ATOM     28  H   UNL     1      -2.672  10.045 -13.180  0.00  0.00    +0.000 HD
ENDBRANCH  24  25
ENDBRANCH  20  24
ENDBRANCH  17  20
ENDBRANCH   1  17
TORSDOF 8
ENDMDL
MODEL 10
REMARK VINA RESULT:    -4.143      2.467      4.320
REMARK INTER + INTRA:          -6.159
REMARK INTER:                  -5.768
REMARK INTRA:                  -0.391
REMARK UNBOUND:                -0.321
REMARK  Name = 13187
REMARK  8 active torsions:
REMARK  status: ('A' for Active; 'I' for Inactive)
REMARK    1  A    between atoms: C_2  and  C_3
REMARK    2  A    between atoms: C_2  and  C_4
REMARK    3  A    between atoms: C_3  and  C_5
REMARK    4  A    between atoms: C_4  and  C_6
REMARK    5  A    between atoms: C_5  and  C_7
REMARK    6  A    between atoms: C_6  and  C_8
REMARK    7  A    between atoms: C_7  and  C_9
REMARK    8  A    between atoms: C_9  and  C_10
REMARK                            x       y       z     vdW  Elec       q    Type
REMARK                         _______ _______ _______ _____ _____    ______ ____
ROOT
ATOM      1  C   UNL     1       6.324   8.771   0.040  0.00  0.00    +0.000 C 
ATOM      2  H   UNL     1       5.241   8.795  -0.132  0.00  0.00    +0.000 HD
ATOM      3  H   UNL     1       6.788   8.373  -0.869  0.00  0.00    +0.000 HD
ENDROOT
BRANCH   1   4
ATOM      4  C   UNL     1       6.837  10.190   0.299  0.00  0.00    +0.000 C 
ATOM      5  H   UNL     1       7.888  10.262  -0.006  0.00  0.00    +0.000 HD
ATOM      6  H   UNL     1       6.798  10.402   1.375  0.00  0.00    +0.000 HD
BRANCH   4   7
ATOM      7  C   UNL     1       6.008  11.228  -0.458  0.00  0.00    +0.000 C 
ATOM      8  H   UNL     1       6.024  11.001  -1.531  0.00  0.00    +0.000 HD
ATOM      9  H   UNL     1       6.457  12.220  -0.329  0.00  0.00    +0.000 HD
BRANCH   7  10
ATOM     10  C   UNL     1       4.562  11.250   0.036  0.00  0.00    +0.000 C 
ATOM     11  H   UNL     1       4.367  12.183   0.577  0.00  0.00    +0.000 HD
ATOM     12  H   UNL     1       4.395  10.427   0.741  0.00  0.00    +0.000 HD
BRANCH  10  13
ATOM     13  C   UNL     1       3.577  11.130  -1.116  0.00  0.00    +0.000 C 
ATOM     14  H   UNL     1       3.986  11.573  -2.029  0.00  0.00    +0.000 HD
ATOM     15  H   UNL     1       2.635  11.634  -0.881  0.00  0.00    +0.000 HD
ATOM     16  H   UNL     1       3.357  10.076  -1.318  0.00  0.00    +0.000 HD
ENDBRANCH  10  13
ENDBRANCH   7  10
ENDBRANCH   4   7
ENDBRANCH   1   4
BRANCH   1  17
ATOM     17  C   UNL     1       6.631   7.846   1.222  0.00  0.00    +0.000 C 
ATOM     18  H   UNL     1       5.759   7.211   1.424  0.00  0.00    +0.000 HD
ATOM     19  H   UNL     1       7.452   7.172   0.950  0.00  0.00    +0.000 HD
BRANCH  17  20
ATOM     20  C   UNL     1       7.000   8.616   2.486  0.00  0.00    +0.000 C 
ATOM     21  H   UNL     1       8.084   8.770   2.527  0.00  0.00    +0.000 HD
ATOM     22  H   UNL     1       6.509   9.595   2.479  0.00  0.00    +0.000 HD
BRANCH  20  24
ATOM     23  O   UNL     1       7.115   8.165   4.837  0.00  0.00    +0.000 OA
ATOM     24  C   UNL     1       6.588   7.899   3.757  0.00  0.00    +0.000 C 
BRANCH  24  25
ATOM     25  C   UNL     1       5.524   6.839   3.647  0.00  0.00    +0.000 C 
ATOM     26  H   UNL     1       5.987   5.849   3.644  0.00  0.00    +0.000 HD
ATOM     27  H   UNL     1       4.969   6.975   2.715  0.00  0.00    +0.000 HD
ATOM     28  H   UNL     1       4.847   6.911   4.502  0.00  0.00    +0.000 HD
ENDBRANCH  24  25
ENDBRANCH  20  24
ENDBRANCH  17  20
ENDBRANCH   1  17
TORSDOF 8
ENDMDL
