MODEL 1
REMARK VINA RESULT:    -4.398      0.000      0.000
REMARK INTER + INTRA:          -7.048
REMARK INTER:                  -6.626
REMARK INTRA:                  -0.422
REMARK UNBOUND:                -0.721
REMARK  Name = 12367
REMARK  9 active torsions:
REMARK  status: ('A' for Active; 'I' for Inactive)
REMARK    1  A    between atoms: O_1  and  C_7
REMARK    2  A    between atoms: C_2  and  C_3
REMARK    3  A    between atoms: C_2  and  C_4
REMARK    4  A    between atoms: C_3  and  C_5
REMARK    5  A    between atoms: C_4  and  C_6
REMARK    6  A    between atoms: C_5  and  C_7
REMARK    7  A    between atoms: C_6  and  C_8
REMARK    8  A    between atoms: C_7  and  C_9
REMARK    9  A    between atoms: C_8  and  C_10
REMARK                            x       y       z     vdW  Elec       q    Type
REMARK                         _______ _______ _______ _____ _____    ______ ____
ROOT
ATOM      1  C   UNL     1     -20.839  -1.686   5.055  0.00  0.00    +0.000 C 
ATOM      2  H   UNL     1     -20.240  -0.903   4.574  0.00  0.00    +0.000 HD
ATOM      3  H   UNL     1     -21.890  -1.380   4.983  0.00  0.00    +0.000 HD
ENDROOT
BRANCH   1   4
ATOM      4  C   UNL     1     -20.639  -3.014   4.321  0.00  0.00    +0.000 C 
ATOM      5  H   UNL     1     -19.785  -2.934   3.637  0.00  0.00    +0.000 HD
ATOM      6  H   UNL     1     -21.525  -3.221   3.709  0.00  0.00    +0.000 HD
BRANCH   4   7
ATOM      7  C   UNL     1     -20.400  -4.163   5.306  0.00  0.00    +0.000 C 
ATOM      8  H   UNL     1     -19.939  -3.775   6.222  0.00  0.00    +0.000 HD
ATOM      9  H   UNL     1     -21.372  -4.590   5.582  0.00  0.00    +0.000 HD
BRANCH   7  10
ATOM     10  C   UNL     1     -19.517  -5.262   4.708  0.00  0.00    +0.000 C 
ATOM     11  H   UNL     1     -20.115  -6.164   4.532  0.00  0.00    +0.000 HD
BRANCH  10  12
ATOM     12  C   UNL     1     -18.874  -4.806   3.406  0.00  0.00    +0.000 C 
ATOM     13  H   UNL     1     -18.892  -5.601   2.654  0.00  0.00    +0.000 HD
ATOM     14  H   UNL     1     -19.389  -3.927   3.001  0.00  0.00    +0.000 HD
ATOM     15  H   UNL     1     -17.833  -4.509   3.575  0.00  0.00    +0.000 HD
ENDBRANCH  10  12
BRANCH  10  16
ATOM     16  O   UNL     1     -18.488  -5.592   5.638  0.00  0.00    +0.000 OA
ATOM     17  H   UNL     1     -18.917  -5.917   6.447  0.00  0.00    +0.000 HD
ENDBRANCH  10  16
ENDBRANCH   7  10
ENDBRANCH   4   7
ENDBRANCH   1   4
BRANCH   1  18
ATOM     18  C   UNL     1     -20.438  -1.800   6.527  0.00  0.00    +0.000 C 
ATOM     19  H   UNL     1     -20.901  -2.694   6.962  0.00  0.00    +0.000 HD
ATOM     20  H   UNL     1     -19.353  -1.940   6.597  0.00  0.00    +0.000 HD
BRANCH  18  21
ATOM     21  C   UNL     1     -20.837  -0.580   7.364  0.00  0.00    +0.000 C 
ATOM     22  H   UNL     1     -21.079   0.248   6.685  0.00  0.00    +0.000 HD
ATOM     23  H   UNL     1     -19.963  -0.257   7.945  0.00  0.00    +0.000 HD
BRANCH  21  24
ATOM     24  C   UNL     1     -22.011  -0.787   8.323  0.00  0.00    +0.000 C 
ATOM     25  H   UNL     1     -21.760  -0.352   9.299  0.00  0.00    +0.000 HD
ATOM     26  H   UNL     1     -22.884  -0.240   7.947  0.00  0.00    +0.000 HD
BRANCH  24  27
ATOM     27  C   UNL     1     -22.391  -2.247   8.515  0.00  0.00    +0.000 C 
ATOM     28  H   UNL     1     -21.521  -2.891   8.357  0.00  0.00    +0.000 HD
ATOM     29  H   UNL     1     -23.168  -2.543   7.803  0.00  0.00    +0.000 HD
ATOM     30  H   UNL     1     -22.768  -2.422   9.527  0.00  0.00    +0.000 HD
ENDBRANCH  24  27
ENDBRANCH  21  24
ENDBRANCH  18  21
ENDBRANCH   1  18
TORSDOF 9
ENDMDL
MODEL 2
REMARK VINA RESULT:    -4.336     25.500     27.066
REMARK INTER + INTRA:          -6.958
REMARK INTER:                  -6.199
REMARK INTRA:                  -0.760
REMARK UNBOUND:                -0.721
REMARK  Name = 12367
REMARK  9 active torsions:
REMARK  status: ('A' for Active; 'I' for Inactive)
REMARK    1  A    between atoms: O_1  and  C_7
REMARK    2  A    between atoms: C_2  and  C_3
REMARK    3  A    between atoms: C_2  and  C_4
REMARK    4  A    between atoms: C_3  and  C_5
REMARK    5  A    between atoms: C_4  and  C_6
REMARK    6  A    between atoms: C_5  and  C_7
REMARK    7  A    between atoms: C_6  and  C_8
REMARK    8  A    between atoms: C_7  and  C_9
REMARK    9  A    between atoms: C_8  and  C_10
REMARK                            x       y       z     vdW  Elec       q    Type
REMARK                         _______ _______ _______ _____ _____    ______ ____
ROOT
ATOM      1  C   UNL     1      -2.098   9.313  -9.580  0.00  0.00    +0.000 C 
ATOM      2  H   UNL     1      -1.213   8.724  -9.849  0.00  0.00    +0.000 HD
ATOM      3  H   UNL     1      -1.747  10.187  -9.017  0.00  0.00    +0.000 HD
ENDROOT
BRANCH   1   4
ATOM      4  C   UNL     1      -2.818   9.776 -10.849  0.00  0.00    +0.000 C 
ATOM      5  H   UNL     1      -2.986  10.859 -10.805  0.00  0.00    +0.000 HD
ATOM      6  H   UNL     1      -3.803   9.297 -10.895  0.00  0.00    +0.000 HD
BRANCH   4   7
ATOM      7  C   UNL     1      -2.007   9.435 -12.104  0.00  0.00    +0.000 C 
ATOM      8  H   UNL     1      -2.687   9.195 -12.930  0.00  0.00    +0.000 HD
ATOM      9  H   UNL     1      -1.434  10.324 -12.397  0.00  0.00    +0.000 HD
BRANCH   7  10
ATOM     10  C   UNL     1      -1.045   8.267 -11.870  0.00  0.00    +0.000 C 
ATOM     11  H   UNL     1      -0.934   8.087 -10.795  0.00  0.00    +0.000 HD
BRANCH  10  12
ATOM     12  C   UNL     1      -1.537   7.001 -12.558  0.00  0.00    +0.000 C 
ATOM     13  H   UNL     1      -1.688   7.164 -13.630  0.00  0.00    +0.000 HD
ATOM     14  H   UNL     1      -0.823   6.180 -12.424  0.00  0.00    +0.000 HD
ATOM     15  H   UNL     1      -2.483   6.669 -12.118  0.00  0.00    +0.000 HD
ENDBRANCH  10  12
BRANCH  10  16
ATOM     16  O   UNL     1       0.237   8.606 -12.393  0.00  0.00    +0.000 OA
ATOM     17  H   UNL     1       0.261   8.320 -13.322  0.00  0.00    +0.000 HD
ENDBRANCH  10  16
ENDBRANCH   7  10
ENDBRANCH   4   7
ENDBRANCH   1   4
BRANCH   1  18
ATOM     18  C   UNL     1      -3.021   8.471  -8.696  0.00  0.00    +0.000 C 
ATOM     19  H   UNL     1      -2.640   8.471  -7.668  0.00  0.00    +0.000 HD
ATOM     20  H   UNL     1      -4.015   8.933  -8.666  0.00  0.00    +0.000 HD
BRANCH  18  21
ATOM     21  C   UNL     1      -3.162   7.021  -9.170  0.00  0.00    +0.000 C 
ATOM     22  H   UNL     1      -2.783   6.355  -8.384  0.00  0.00    +0.000 HD
ATOM     23  H   UNL     1      -2.509   6.874 -10.040  0.00  0.00    +0.000 HD
BRANCH  21  24
ATOM     24  C   UNL     1      -4.578   6.579  -9.545  0.00  0.00    +0.000 C 
ATOM     25  H   UNL     1      -4.721   5.533  -9.246  0.00  0.00    +0.000 HD
ATOM     26  H   UNL     1      -5.304   7.174  -8.978  0.00  0.00    +0.000 HD
BRANCH  24  27
ATOM     27  C   UNL     1      -4.886   6.715 -11.029  0.00  0.00    +0.000 C 
ATOM     28  H   UNL     1      -5.950   6.923 -11.179  0.00  0.00    +0.000 HD
ATOM     29  H   UNL     1      -4.639   5.793 -11.564  0.00  0.00    +0.000 HD
ATOM     30  H   UNL     1      -4.311   7.534 -11.472  0.00  0.00    +0.000 HD
ENDBRANCH  24  27
ENDBRANCH  21  24
ENDBRANCH  18  21
ENDBRANCH   1  18
TORSDOF 9
ENDMDL
MODEL 3
REMARK VINA RESULT:    -4.334     25.766     27.338
REMARK INTER + INTRA:          -6.955
REMARK INTER:                  -6.274
REMARK INTRA:                  -0.681
REMARK UNBOUND:                -0.721
REMARK  Name = 12367
REMARK  9 active torsions:
REMARK  status: ('A' for Active; 'I' for Inactive)
REMARK    1  A    between atoms: O_1  and  C_7
REMARK    2  A    between atoms: C_2  and  C_3
REMARK    3  A    between atoms: C_2  and  C_4
REMARK    4  A    between atoms: C_3  and  C_5
REMARK    5  A    between atoms: C_4  and  C_6
REMARK    6  A    between atoms: C_5  and  C_7
REMARK    7  A    between atoms: C_6  and  C_8
REMARK    8  A    between atoms: C_7  and  C_9
REMARK    9  A    between atoms: C_8  and  C_10
REMARK                            x       y       z     vdW  Elec       q    Type
REMARK                         _______ _______ _______ _____ _____    ______ ____
ROOT
ATOM      1  C   UNL     1      -3.958   6.781 -10.913  0.00  0.00    +0.000 C 
ATOM      2  H   UNL     1      -4.693   7.585 -10.789  0.00  0.00    +0.000 HD
ATOM      3  H   UNL     1      -4.515   5.836 -10.949  0.00  0.00    +0.000 HD
ENDROOT
BRANCH   1   4
ATOM      4  C   UNL     1      -3.191   6.975 -12.223  0.00  0.00    +0.000 C 
ATOM      5  H   UNL     1      -3.464   7.939 -12.671  0.00  0.00    +0.000 HD
ATOM      6  H   UNL     1      -3.491   6.193 -12.931  0.00  0.00    +0.000 HD
BRANCH   4   7
ATOM      7  C   UNL     1      -1.677   6.927 -11.995  0.00  0.00    +0.000 C 
ATOM      8  H   UNL     1      -1.453   7.168 -10.948  0.00  0.00    +0.000 HD
ATOM      9  H   UNL     1      -1.332   5.902 -12.177  0.00  0.00    +0.000 HD
BRANCH   7  10
ATOM     10  C   UNL     1      -0.923   7.886 -12.919  0.00  0.00    +0.000 C 
ATOM     11  H   UNL     1      -0.522   7.336 -13.778  0.00  0.00    +0.000 HD
BRANCH  10  12
ATOM     12  C   UNL     1      -1.827   9.012 -13.404  0.00  0.00    +0.000 C 
ATOM     13  H   UNL     1      -1.316   9.645 -14.136  0.00  0.00    +0.000 HD
ATOM     14  H   UNL     1      -2.740   8.612 -13.860  0.00  0.00    +0.000 HD
ATOM     15  H   UNL     1      -2.144   9.637 -12.563  0.00  0.00    +0.000 HD
ENDBRANCH  10  12
BRANCH  10  16
ATOM     16  O   UNL     1       0.176   8.452 -12.209  0.00  0.00    +0.000 OA
ATOM     17  H   UNL     1       0.974   8.319 -12.749  0.00  0.00    +0.000 HD
ENDBRANCH  10  16
ENDBRANCH   7  10
ENDBRANCH   4   7
ENDBRANCH   1   4
BRANCH   1  18
ATOM     18  C   UNL     1      -3.009   6.770  -9.712  0.00  0.00    +0.000 C 
ATOM     19  H   UNL     1      -3.149   5.843  -9.145  0.00  0.00    +0.000 HD
ATOM     20  H   UNL     1      -1.972   6.770 -10.070  0.00  0.00    +0.000 HD
BRANCH  18  21
ATOM     21  C   UNL     1      -3.207   7.961  -8.769  0.00  0.00    +0.000 C 
ATOM     22  H   UNL     1      -3.026   7.628  -7.739  0.00  0.00    +0.000 HD
ATOM     23  H   UNL     1      -4.260   8.269  -8.812  0.00  0.00    +0.000 HD
BRANCH  21  24
ATOM     24  C   UNL     1      -2.332   9.185  -9.049  0.00  0.00    +0.000 C 
ATOM     25  H   UNL     1      -2.203   9.757  -8.122  0.00  0.00    +0.000 HD
ATOM     26  H   UNL     1      -1.333   8.851  -9.357  0.00  0.00    +0.000 HD
BRANCH  24  27
ATOM     27  C   UNL     1      -2.894  10.103 -10.123  0.00  0.00    +0.000 C 
ATOM     28  H   UNL     1      -2.101  10.731 -10.541  0.00  0.00    +0.000 HD
ATOM     29  H   UNL     1      -3.666  10.759  -9.709  0.00  0.00    +0.000 HD
ATOM     30  H   UNL     1      -3.338   9.524 -10.938  0.00  0.00    +0.000 HD
ENDBRANCH  24  27
ENDBRANCH  21  24
ENDBRANCH  18  21
ENDBRANCH   1  18
TORSDOF 9
ENDMDL
MODEL 4
REMARK VINA RESULT:    -4.222     29.105     30.016
REMARK INTER + INTRA:          -6.794
REMARK INTER:                  -6.511
REMARK INTRA:                  -0.283
REMARK UNBOUND:                -0.721
REMARK  Name = 12367
REMARK  9 active torsions:
REMARK  status: ('A' for Active; 'I' for Inactive)
REMARK    1  A    between atoms: O_1  and  C_7
REMARK    2  A    between atoms: C_2  and  C_3
REMARK    3  A    between atoms: C_2  and  C_4
REMARK    4  A    between atoms: C_3  and  C_5
REMARK    5  A    between atoms: C_4  and  C_6
REMARK    6  A    between atoms: C_5  and  C_7
REMARK    7  A    between atoms: C_6  and  C_8
REMARK    8  A    between atoms: C_7  and  C_9
REMARK    9  A    between atoms: C_8  and  C_10
REMARK                            x       y       z     vdW  Elec       q    Type
REMARK                         _______ _______ _______ _____ _____    ______ ____
ROOT
ATOM      1  C   UNL     1       5.438   8.755   1.271  0.00  0.00    +0.000 C 
ATOM      2  H   UNL     1       4.831   7.958   1.716  0.00  0.00    +0.000 HD
ATOM      3  H   UNL     1       5.750   9.419   2.087  0.00  0.00    +0.000 HD
ENDROOT
BRANCH   1   4
ATOM      4  C   UNL     1       6.674   8.151   0.601  0.00  0.00    +0.000 C 
ATOM      5  H   UNL     1       6.365   7.391  -0.129  0.00  0.00    +0.000 HD
ATOM      6  H   UNL     1       7.279   7.642   1.361  0.00  0.00    +0.000 HD
BRANCH   4   7
ATOM      7  C   UNL     1       7.509   9.226  -0.102  0.00  0.00    +0.000 C 
ATOM      8  H   UNL     1       6.891  10.115  -0.281  0.00  0.00    +0.000 HD
ATOM      9  H   UNL     1       8.326   9.523   0.567  0.00  0.00    +0.000 HD
BRANCH   7  10
ATOM     10  C   UNL     1       8.095   8.729  -1.426  0.00  0.00    +0.000 C 
ATOM     11  H   UNL     1       7.598   9.233  -2.264  0.00  0.00    +0.000 HD
BRANCH  10  12
ATOM     12  C   UNL     1       9.595   8.976  -1.493  0.00  0.00    +0.000 C 
ATOM     13  H   UNL     1      10.055   8.413  -2.311  0.00  0.00    +0.000 HD
ATOM     14  H   UNL     1       9.812  10.042  -1.634  0.00  0.00    +0.000 HD
ATOM     15  H   UNL     1      10.075   8.681  -0.553  0.00  0.00    +0.000 HD
ENDBRANCH  10  12
BRANCH  10  16
ATOM     16  O   UNL     1       7.853   7.330  -1.549  0.00  0.00    +0.000 OA
ATOM     17  H   UNL     1       8.635   6.932  -1.966  0.00  0.00    +0.000 HD
ENDBRANCH  10  16
ENDBRANCH   7  10
ENDBRANCH   4   7
ENDBRANCH   1   4
BRANCH   1  18
ATOM     18  C   UNL     1       4.591   9.540   0.266  0.00  0.00    +0.000 C 
ATOM     19  H   UNL     1       5.205   9.798  -0.604  0.00  0.00    +0.000 HD
ATOM     20  H   UNL     1       3.778   8.901  -0.097  0.00  0.00    +0.000 HD
BRANCH  18  21
ATOM     21  C   UNL     1       3.992  10.825   0.847  0.00  0.00    +0.000 C 
ATOM     22  H   UNL     1       4.791  11.395   1.338  0.00  0.00    +0.000 HD
ATOM     23  H   UNL     1       3.279  10.551   1.636  0.00  0.00    +0.000 HD
BRANCH  21  24
ATOM     24  C   UNL     1       3.283  11.739  -0.154  0.00  0.00    +0.000 C 
ATOM     25  H   UNL     1       2.254  11.915   0.185  0.00  0.00    +0.000 HD
ATOM     26  H   UNL     1       3.783  12.715  -0.169  0.00  0.00    +0.000 HD
BRANCH  24  27
ATOM     27  C   UNL     1       3.250  11.183  -1.569  0.00  0.00    +0.000 C 
ATOM     28  H   UNL     1       3.713  11.889  -2.266  0.00  0.00    +0.000 HD
ATOM     29  H   UNL     1       2.219  11.009  -1.895  0.00  0.00    +0.000 HD
ATOM     30  H   UNL     1       3.794  10.236  -1.629  0.00  0.00    +0.000 HD
ENDBRANCH  24  27
ENDBRANCH  21  24
ENDBRANCH  18  21
ENDBRANCH   1  18
TORSDOF 9
ENDMDL
MODEL 5
REMARK VINA RESULT:    -4.218     25.846     27.486
REMARK INTER + INTRA:          -6.788
REMARK INTER:                  -6.211
REMARK INTRA:                  -0.577
REMARK UNBOUND:                -0.721
REMARK  Name = 12367
REMARK  9 active torsions:
REMARK  status: ('A' for Active; 'I' for Inactive)
REMARK    1  A    between atoms: O_1  and  C_7
REMARK    2  A    between atoms: C_2  and  C_3
REMARK    3  A    between atoms: C_2  and  C_4
REMARK    4  A    between atoms: C_3  and  C_5
REMARK    5  A    between atoms: C_4  and  C_6
REMARK    6  A    between atoms: C_5  and  C_7
REMARK    7  A    between atoms: C_6  and  C_8
REMARK    8  A    between atoms: C_7  and  C_9
REMARK    9  A    between atoms: C_8  and  C_10
REMARK                            x       y       z     vdW  Elec       q    Type
REMARK                         _______ _______ _______ _____ _____    ______ ____
ROOT
ATOM      1  C   UNL     1      -2.716   8.969  -8.721  0.00  0.00    +0.000 C 
ATOM      2  H   UNL     1      -1.706   8.873  -8.305  0.00  0.00    +0.000 HD
ATOM      3  H   UNL     1      -3.308   9.549  -8.003  0.00  0.00    +0.000 HD
ENDROOT
BRANCH   1   4
ATOM      4  C   UNL     1      -2.656   9.715 -10.057  0.00  0.00    +0.000 C 
ATOM      5  H   UNL     1      -3.246  10.638  -9.992  0.00  0.00    +0.000 HD
ATOM      6  H   UNL     1      -3.114   9.092 -10.834  0.00  0.00    +0.000 HD
BRANCH   4   7
ATOM      7  C   UNL     1      -1.212  10.056 -10.439  0.00  0.00    +0.000 C 
ATOM      8  H   UNL     1      -0.968  11.070 -10.098  0.00  0.00    +0.000 HD
ATOM      9  H   UNL     1      -0.542   9.363  -9.915  0.00  0.00    +0.000 HD
BRANCH   7  10
ATOM     10  C   UNL     1      -0.972   9.947 -11.947  0.00  0.00    +0.000 C 
ATOM     11  H   UNL     1      -0.333  10.772 -12.282  0.00  0.00    +0.000 HD
BRANCH  10  12
ATOM     12  C   UNL     1      -0.329   8.616 -12.310  0.00  0.00    +0.000 C 
ATOM     13  H   UNL     1      -0.628   7.827 -11.612  0.00  0.00    +0.000 HD
ATOM     14  H   UNL     1      -0.605   8.311 -13.326  0.00  0.00    +0.000 HD
ATOM     15  H   UNL     1       0.763   8.701 -12.293  0.00  0.00    +0.000 HD
ENDBRANCH  10  12
BRANCH  10  16
ATOM     16  O   UNL     1      -2.220  10.055 -12.628  0.00  0.00    +0.000 OA
ATOM     17  H   UNL     1      -2.113   9.650 -13.504  0.00  0.00    +0.000 HD
ENDBRANCH  10  16
ENDBRANCH   7  10
ENDBRANCH   4   7
ENDBRANCH   1   4
BRANCH   1  18
ATOM     18  C   UNL     1      -3.331   7.579  -8.890  0.00  0.00    +0.000 C 
ATOM     19  H   UNL     1      -3.002   6.933  -8.068  0.00  0.00    +0.000 HD
ATOM     20  H   UNL     1      -4.422   7.655  -8.817  0.00  0.00    +0.000 HD
BRANCH  18  21
ATOM     21  C   UNL     1      -2.968   6.909 -10.220  0.00  0.00    +0.000 C 
ATOM     22  H   UNL     1      -2.563   5.910 -10.012  0.00  0.00    +0.000 HD
ATOM     23  H   UNL     1      -2.155   7.480 -10.686  0.00  0.00    +0.000 HD
BRANCH  21  24
ATOM     24  C   UNL     1      -4.110   6.774 -11.230  0.00  0.00    +0.000 C 
ATOM     25  H   UNL     1      -4.618   5.815 -11.074  0.00  0.00    +0.000 HD
ATOM     26  H   UNL     1      -4.851   7.560 -11.043  0.00  0.00    +0.000 HD
BRANCH  24  27
ATOM     27  C   UNL     1      -3.655   6.864 -12.678  0.00  0.00    +0.000 C 
ATOM     28  H   UNL     1      -4.120   7.724 -13.170  0.00  0.00    +0.000 HD
ATOM     29  H   UNL     1      -3.935   5.962 -13.231  0.00  0.00    +0.000 HD
ATOM     30  H   UNL     1      -2.569   6.981 -12.739  0.00  0.00    +0.000 HD
ENDBRANCH  24  27
ENDBRANCH  21  24
ENDBRANCH  18  21
ENDBRANCH   1  18
TORSDOF 9
ENDMDL
MODEL 6
REMARK VINA RESULT:    -4.040     20.148     21.999
REMARK INTER + INTRA:          -6.533
REMARK INTER:                  -6.265
REMARK INTRA:                  -0.268
REMARK UNBOUND:                -0.721
REMARK  Name = 12367
REMARK  9 active torsions:
REMARK  status: ('A' for Active; 'I' for Inactive)
REMARK    1  A    between atoms: O_1  and  C_7
REMARK    2  A    between atoms: C_2  and  C_3
REMARK    3  A    between atoms: C_2  and  C_4
REMARK    4  A    between atoms: C_3  and  C_5
REMARK    5  A    between atoms: C_4  and  C_6
REMARK    6  A    between atoms: C_5  and  C_7
REMARK    7  A    between atoms: C_6  and  C_8
REMARK    8  A    between atoms: C_7  and  C_9
REMARK    9  A    between atoms: C_8  and  C_10
REMARK                            x       y       z     vdW  Elec       q    Type
REMARK                         _______ _______ _______ _____ _____    ______ ____
ROOT
ATOM      1  C   UNL     1      -6.641   4.879  -8.431  0.00  0.00    +0.000 C 
ATOM      2  H   UNL     1      -6.111   4.017  -8.006  0.00  0.00    +0.000 HD
ATOM      3  H   UNL     1      -6.869   4.635  -9.476  0.00  0.00    +0.000 HD
ENDROOT
BRANCH   1   4
ATOM      4  C   UNL     1      -7.943   5.116  -7.663  0.00  0.00    +0.000 C 
ATOM      5  H   UNL     1      -8.226   4.203  -7.123  0.00  0.00    +0.000 HD
ATOM      6  H   UNL     1      -8.746   5.329  -8.379  0.00  0.00    +0.000 HD
BRANCH   4   7
ATOM      7  C   UNL     1      -7.801   6.274  -6.671  0.00  0.00    +0.000 C 
ATOM      8  H   UNL     1      -6.745   6.557  -6.581  0.00  0.00    +0.000 HD
ATOM      9  H   UNL     1      -8.342   7.141  -7.072  0.00  0.00    +0.000 HD
BRANCH   7  10
ATOM     10  C   UNL     1      -8.361   5.924  -5.289  0.00  0.00    +0.000 C 
ATOM     11  H   UNL     1      -9.371   6.337  -5.183  0.00  0.00    +0.000 HD
BRANCH  10  12
ATOM     12  C   UNL     1      -8.395   4.417  -5.073  0.00  0.00    +0.000 C 
ATOM     13  H   UNL     1      -8.329   3.878  -6.023  0.00  0.00    +0.000 HD
ATOM     14  H   UNL     1      -7.570   4.096  -4.427  0.00  0.00    +0.000 HD
ATOM     15  H   UNL     1      -9.321   4.123  -4.568  0.00  0.00    +0.000 HD
ENDBRANCH  10  12
BRANCH  10  16
ATOM     16  O   UNL     1      -7.537   6.515  -4.287  0.00  0.00    +0.000 OA
ATOM     17  H   UNL     1      -7.888   7.403  -4.105  0.00  0.00    +0.000 HD
ENDBRANCH  10  16
ENDBRANCH   7  10
ENDBRANCH   4   7
ENDBRANCH   1   4
BRANCH   1  18
ATOM     18  C   UNL     1      -5.735   6.110  -8.378  0.00  0.00    +0.000 C 
ATOM     19  H   UNL     1      -6.340   6.999  -8.165  0.00  0.00    +0.000 HD
ATOM     20  H   UNL     1      -5.026   6.003  -7.548  0.00  0.00    +0.000 HD
BRANCH  18  21
ATOM     21  C   UNL     1      -4.950   6.345  -9.673  0.00  0.00    +0.000 C 
ATOM     22  H   UNL     1      -5.554   6.974 -10.341  0.00  0.00    +0.000 HD
ATOM     23  H   UNL     1      -4.826   5.382 -10.185  0.00  0.00    +0.000 HD
BRANCH  21  24
ATOM     24  C   UNL     1      -3.572   6.989  -9.508  0.00  0.00    +0.000 C 
ATOM     25  H   UNL     1      -3.694   8.069  -9.358  0.00  0.00    +0.000 HD
ATOM     26  H   UNL     1      -3.096   6.595  -8.602  0.00  0.00    +0.000 HD
BRANCH  24  27
ATOM     27  C   UNL     1      -2.644   6.755 -10.690  0.00  0.00    +0.000 C 
ATOM     28  H   UNL     1      -3.012   5.926 -11.304  0.00  0.00    +0.000 HD
ATOM     29  H   UNL     1      -1.634   6.505 -10.350  0.00  0.00    +0.000 HD
ATOM     30  H   UNL     1      -2.583   7.647 -11.320  0.00  0.00    +0.000 HD
ENDBRANCH  24  27
ENDBRANCH  21  24
ENDBRANCH  18  21
ENDBRANCH   1  18
TORSDOF 9
ENDMDL
MODEL 7
REMARK VINA RESULT:    -3.986      2.471      5.326
REMARK INTER + INTRA:          -6.454
REMARK INTER:                  -6.212
REMARK INTRA:                  -0.242
REMARK UNBOUND:                -0.721
REMARK  Name = 12367
REMARK  9 active torsions:
REMARK  status: ('A' for Active; 'I' for Inactive)
REMARK    1  A    between atoms: O_1  and  C_7
REMARK    2  A    between atoms: C_2  and  C_3
REMARK    3  A    between atoms: C_2  and  C_4
REMARK    4  A    between atoms: C_3  and  C_5
REMARK    5  A    between atoms: C_4  and  C_6
REMARK    6  A    between atoms: C_5  and  C_7
REMARK    7  A    between atoms: C_6  and  C_8
REMARK    8  A    between atoms: C_7  and  C_9
REMARK    9  A    between atoms: C_8  and  C_10
REMARK                            x       y       z     vdW  Elec       q    Type
REMARK                         _______ _______ _______ _____ _____    ______ ____
ROOT
ATOM      1  C   UNL     1     -21.394  -2.205   5.218  0.00  0.00    +0.000 C 
ATOM      2  H   UNL     1     -22.389  -2.238   5.678  0.00  0.00    +0.000 HD
ATOM      3  H   UNL     1     -21.541  -2.144   4.133  0.00  0.00    +0.000 HD
ENDROOT
BRANCH   1   4
ATOM      4  C   UNL     1     -20.640  -0.965   5.704  0.00  0.00    +0.000 C 
ATOM      5  H   UNL     1     -21.159  -0.060   5.364  0.00  0.00    +0.000 HD
ATOM      6  H   UNL     1     -19.641  -0.954   5.252  0.00  0.00    +0.000 HD
BRANCH   4   7
ATOM      7  C   UNL     1     -20.527  -0.946   7.232  0.00  0.00    +0.000 C 
ATOM      8  H   UNL     1     -19.991  -1.840   7.574  0.00  0.00    +0.000 HD
ATOM      9  H   UNL     1     -19.929  -0.073   7.524  0.00  0.00    +0.000 HD
BRANCH   7  10
ATOM     10  C   UNL     1     -21.896  -0.872   7.912  0.00  0.00    +0.000 C 
ATOM     11  H   UNL     1     -22.673  -0.681   7.163  0.00  0.00    +0.000 HD
BRANCH  10  12
ATOM     12  C   UNL     1     -22.209  -2.157   8.665  0.00  0.00    +0.000 C 
ATOM     13  H   UNL     1     -21.725  -3.020   8.198  0.00  0.00    +0.000 HD
ATOM     14  H   UNL     1     -21.880  -2.091   9.709  0.00  0.00    +0.000 HD
ATOM     15  H   UNL     1     -23.290  -2.334   8.688  0.00  0.00    +0.000 HD
ENDBRANCH  10  12
BRANCH  10  16
ATOM     16  O   UNL     1     -21.901   0.215   8.835  0.00  0.00    +0.000 OA
ATOM     17  H   UNL     1     -22.676   0.106   9.412  0.00  0.00    +0.000 HD
ENDBRANCH  10  16
ENDBRANCH   7  10
ENDBRANCH   4   7
ENDBRANCH   1   4
BRANCH   1  18
ATOM     18  C   UNL     1     -20.632  -3.487   5.562  0.00  0.00    +0.000 C 
ATOM     19  H   UNL     1     -19.648  -3.227   5.969  0.00  0.00    +0.000 HD
ATOM     20  H   UNL     1     -21.169  -4.027   6.350  0.00  0.00    +0.000 HD
BRANCH  18  21
ATOM     21  C   UNL     1     -20.440  -4.421   4.363  0.00  0.00    +0.000 C 
ATOM     22  H   UNL     1     -20.534  -3.834   3.440  0.00  0.00    +0.000 HD
ATOM     23  H   UNL     1     -21.263  -5.147   4.352  0.00  0.00    +0.000 HD
BRANCH  21  24
ATOM     24  C   UNL     1     -19.116  -5.187   4.322  0.00  0.00    +0.000 C 
ATOM     25  H   UNL     1     -18.445  -4.790   5.095  0.00  0.00    +0.000 HD
ATOM     26  H   UNL     1     -19.300  -6.239   4.572  0.00  0.00    +0.000 HD
BRANCH  24  27
ATOM     27  C   UNL     1     -18.413  -5.119   2.975  0.00  0.00    +0.000 C 
ATOM     28  H   UNL     1     -19.148  -5.056   2.166  0.00  0.00    +0.000 HD
ATOM     29  H   UNL     1     -17.800  -6.011   2.810  0.00  0.00    +0.000 HD
ATOM     30  H   UNL     1     -17.764  -4.241   2.918  0.00  0.00    +0.000 HD
ENDBRANCH  24  27
ENDBRANCH  21  24
ENDBRANCH  18  21
ENDBRANCH   1  18
TORSDOF 9
ENDMDL
MODEL 8
REMARK VINA RESULT:    -3.971     17.689     19.159
REMARK INTER + INTRA:          -6.434
REMARK INTER:                  -6.217
REMARK INTRA:                  -0.216
REMARK UNBOUND:                -0.721
REMARK  Name = 12367
REMARK  9 active torsions:
REMARK  status: ('A' for Active; 'I' for Inactive)
REMARK    1  A    between atoms: O_1  and  C_7
REMARK    2  A    between atoms: C_2  and  C_3
REMARK    3  A    between atoms: C_2  and  C_4
REMARK    4  A    between atoms: C_3  and  C_5
REMARK    5  A    between atoms: C_4  and  C_6
REMARK    6  A    between atoms: C_5  and  C_7
REMARK    7  A    between atoms: C_6  and  C_8
REMARK    8  A    between atoms: C_7  and  C_9
REMARK    9  A    between atoms: C_8  and  C_10
REMARK                            x       y       z     vdW  Elec       q    Type
REMARK                         _______ _______ _______ _____ _____    ______ ____
ROOT
ATOM      1  C   UNL     1      -8.226  11.130   7.038  0.00  0.00    +0.000 C 
ATOM      2  H   UNL     1      -8.515  12.155   7.300  0.00  0.00    +0.000 HD
ATOM      3  H   UNL     1      -7.176  11.005   7.329  0.00  0.00    +0.000 HD
ENDROOT
BRANCH   1   4
ATOM      4  C   UNL     1      -9.095  10.134   7.810  0.00  0.00    +0.000 C 
ATOM      5  H   UNL     1      -9.755   9.602   7.114  0.00  0.00    +0.000 HD
ATOM      6  H   UNL     1      -9.737  10.686   8.507  0.00  0.00    +0.000 HD
BRANCH   4   7
ATOM      7  C   UNL     1      -8.236   9.122   8.575  0.00  0.00    +0.000 C 
ATOM      8  H   UNL     1      -8.587   8.104   8.364  0.00  0.00    +0.000 HD
ATOM      9  H   UNL     1      -7.204   9.197   8.208  0.00  0.00    +0.000 HD
BRANCH   7  10
ATOM     10  C   UNL     1      -8.255   9.373  10.085  0.00  0.00    +0.000 C 
ATOM     11  H   UNL     1      -8.811  10.292  10.302  0.00  0.00    +0.000 HD
BRANCH  10  12
ATOM     12  C   UNL     1      -8.881   8.203  10.831  0.00  0.00    +0.000 C 
ATOM     13  H   UNL     1      -8.130   7.453  11.097  0.00  0.00    +0.000 HD
ATOM     14  H   UNL     1      -9.379   8.543  11.747  0.00  0.00    +0.000 HD
ATOM     15  H   UNL     1      -9.650   7.723  10.216  0.00  0.00    +0.000 HD
ENDBRANCH  10  12
BRANCH  10  16
ATOM     16  O   UNL     1      -6.917   9.550  10.546  0.00  0.00    +0.000 OA
ATOM     17  H   UNL     1      -6.925  10.271  11.197  0.00  0.00    +0.000 HD
ENDBRANCH  10  16
ENDBRANCH   7  10
ENDBRANCH   4   7
ENDBRANCH   1   4
BRANCH   1  18
ATOM     18  C   UNL     1      -8.366  10.932   5.527  0.00  0.00    +0.000 C 
ATOM     19  H   UNL     1      -8.328   9.862   5.295  0.00  0.00    +0.000 HD
ATOM     20  H   UNL     1      -9.350  11.292   5.205  0.00  0.00    +0.000 HD
BRANCH  18  21
ATOM     21  C   UNL     1      -7.284  11.653   4.716  0.00  0.00    +0.000 C 
ATOM     22  H   UNL     1      -7.388  11.369   3.661  0.00  0.00    +0.000 HD
ATOM     23  H   UNL     1      -6.302  11.283   5.039  0.00  0.00    +0.000 HD
BRANCH  21  24
ATOM     24  C   UNL     1      -7.285  13.180   4.814  0.00  0.00    +0.000 C 
ATOM     25  H   UNL     1      -7.475  13.605   3.821  0.00  0.00    +0.000 HD
ATOM     26  H   UNL     1      -8.113  13.499   5.459  0.00  0.00    +0.000 HD
BRANCH  24  27
ATOM     27  C   UNL     1      -5.988  13.756   5.360  0.00  0.00    +0.000 C 
ATOM     28  H   UNL     1      -5.217  13.758   4.584  0.00  0.00    +0.000 HD
ATOM     29  H   UNL     1      -5.622  13.162   6.203  0.00  0.00    +0.000 HD
ATOM     30  H   UNL     1      -6.133  14.785   5.703  0.00  0.00    +0.000 HD
ENDBRANCH  24  27
ENDBRANCH  21  24
ENDBRANCH  18  21
ENDBRANCH   1  18
TORSDOF 9
ENDMDL
MODEL 9
REMARK VINA RESULT:    -3.820     19.353     20.829
REMARK INTER + INTRA:          -6.216
REMARK INTER:                  -5.777
REMARK INTRA:                  -0.439
REMARK UNBOUND:                -0.721
REMARK  Name = 12367
REMARK  9 active torsions:
REMARK  status: ('A' for Active; 'I' for Inactive)
REMARK    1  A    between atoms: O_1  and  C_7
REMARK    2  A    between atoms: C_2  and  C_3
REMARK    3  A    between atoms: C_2  and  C_4
REMARK    4  A    between atoms: C_3  and  C_5
REMARK    5  A    between atoms: C_4  and  C_6
REMARK    6  A    between atoms: C_5  and  C_7
REMARK    7  A    between atoms: C_6  and  C_8
REMARK    8  A    between atoms: C_7  and  C_9
REMARK    9  A    between atoms: C_8  and  C_10
REMARK                            x       y       z     vdW  Elec       q    Type
REMARK                         _______ _______ _______ _____ _____    ______ ____
ROOT
ATOM      1  C   UNL     1      -6.748  14.008   7.533  0.00  0.00    +0.000 C 
ATOM      2  H   UNL     1      -7.838  13.923   7.444  0.00  0.00    +0.000 HD
ATOM      3  H   UNL     1      -6.526  15.046   7.809  0.00  0.00    +0.000 HD
ENDROOT
BRANCH   1   4
ATOM      4  C   UNL     1      -6.243  13.065   8.627  0.00  0.00    +0.000 C 
ATOM      5  H   UNL     1      -6.029  13.637   9.539  0.00  0.00    +0.000 HD
ATOM      6  H   UNL     1      -5.299  12.612   8.300  0.00  0.00    +0.000 HD
BRANCH   4   7
ATOM      7  C   UNL     1      -7.271  11.972   8.939  0.00  0.00    +0.000 C 
ATOM      8  H   UNL     1      -8.273  12.413   8.998  0.00  0.00    +0.000 HD
ATOM      9  H   UNL     1      -7.275  11.255   8.108  0.00  0.00    +0.000 HD
BRANCH   7  10
ATOM     10  C   UNL     1      -6.952  11.234  10.242  0.00  0.00    +0.000 C 
ATOM     11  H   UNL     1      -7.688  11.502  11.009  0.00  0.00    +0.000 HD
BRANCH  10  12
ATOM     12  C   UNL     1      -6.948   9.726  10.036  0.00  0.00    +0.000 C 
ATOM     13  H   UNL     1      -6.383   9.449   9.140  0.00  0.00    +0.000 HD
ATOM     14  H   UNL     1      -6.511   9.213  10.900  0.00  0.00    +0.000 HD
ATOM     15  H   UNL     1      -7.972   9.350   9.933  0.00  0.00    +0.000 HD
ENDBRANCH  10  12
BRANCH  10  16
ATOM     16  O   UNL     1      -5.667  11.639  10.706  0.00  0.00    +0.000 OA
ATOM     17  H   UNL     1      -5.692  12.602  10.836  0.00  0.00    +0.000 HD
ENDBRANCH  10  16
ENDBRANCH   7  10
ENDBRANCH   4   7
ENDBRANCH   1   4
BRANCH   1  18
ATOM     18  C   UNL     1      -6.102  13.687   6.183  0.00  0.00    +0.000 C 
ATOM     19  H   UNL     1      -5.515  14.550   5.846  0.00  0.00    +0.000 HD
ATOM     20  H   UNL     1      -5.399  12.855   6.307  0.00  0.00    +0.000 HD
BRANCH  18  21
ATOM     21  C   UNL     1      -7.115  13.323   5.093  0.00  0.00    +0.000 C 
ATOM     22  H   UNL     1      -6.898  13.919   4.197  0.00  0.00    +0.000 HD
ATOM     23  H   UNL     1      -8.115  13.629   5.431  0.00  0.00    +0.000 HD
BRANCH  21  24
ATOM     24  C   UNL     1      -7.166  11.846   4.699  0.00  0.00    +0.000 C 
ATOM     25  H   UNL     1      -7.370  11.766   3.624  0.00  0.00    +0.000 HD
ATOM     26  H   UNL     1      -6.182  11.393   4.870  0.00  0.00    +0.000 HD
BRANCH  24  27
ATOM     27  C   UNL     1      -8.212  11.047   5.461  0.00  0.00    +0.000 C 
ATOM     28  H   UNL     1      -8.649  10.279   4.816  0.00  0.00    +0.000 HD
ATOM     29  H   UNL     1      -9.020  11.698   5.812  0.00  0.00    +0.000 HD
ATOM     30  H   UNL     1      -7.768  10.553   6.331  0.00  0.00    +0.000 HD
ENDBRANCH  24  27
ENDBRANCH  21  24
ENDBRANCH  18  21
ENDBRANCH   1  18
TORSDOF 9
ENDMDL
MODEL 10
REMARK VINA RESULT:    -3.777     25.526     26.849
REMARK INTER + INTRA:          -6.155
REMARK INTER:                  -5.434
REMARK INTRA:                  -0.721
REMARK UNBOUND:                -0.721
REMARK  Name = 12367
REMARK  9 active torsions:
REMARK  status: ('A' for Active; 'I' for Inactive)
REMARK    1  A    between atoms: O_1  and  C_7
REMARK    2  A    between atoms: C_2  and  C_3
REMARK    3  A    between atoms: C_2  and  C_4
REMARK    4  A    between atoms: C_3  and  C_5
REMARK    5  A    between atoms: C_4  and  C_6
REMARK    6  A    between atoms: C_5  and  C_7
REMARK    7  A    between atoms: C_6  and  C_8
REMARK    8  A    between atoms: C_7  and  C_9
REMARK    9  A    between atoms: C_8  and  C_10
REMARK                            x       y       z     vdW  Elec       q    Type
REMARK                         _______ _______ _______ _____ _____    ______ ____
ROOT
ATOM      1  C   UNL     1      -4.268   6.780 -10.449  0.00  0.00    +0.000 C 
ATOM      2  H   UNL     1      -5.049   7.482 -10.132  0.00  0.00    +0.000 HD
ATOM      3  H   UNL     1      -4.616   5.772 -10.192  0.00  0.00    +0.000 HD
ENDROOT
BRANCH   1   4
ATOM      4  C   UNL     1      -4.064   6.881 -11.962  0.00  0.00    +0.000 C 
ATOM      5  H   UNL     1      -4.272   5.911 -12.430  0.00  0.00    +0.000 HD
ATOM      6  H   UNL     1      -3.013   7.119 -12.165  0.00  0.00    +0.000 HD
BRANCH   4   7
ATOM      7  C   UNL     1      -4.973   7.951 -12.576  0.00  0.00    +0.000 C 
ATOM      8  H   UNL     1      -5.687   7.480 -13.264  0.00  0.00    +0.000 HD
ATOM      9  H   UNL     1      -5.553   8.417 -11.769  0.00  0.00    +0.000 HD
BRANCH   7  10
ATOM     10  C   UNL     1      -4.178   9.030 -13.316  0.00  0.00    +0.000 C 
ATOM     11  H   UNL     1      -4.501   9.077 -14.363  0.00  0.00    +0.000 HD
BRANCH  10  12
ATOM     12  C   UNL     1      -4.355  10.393 -12.660  0.00  0.00    +0.000 C 
ATOM     13  H   UNL     1      -4.360  11.195 -13.405  0.00  0.00    +0.000 HD
ATOM     14  H   UNL     1      -5.290  10.435 -12.090  0.00  0.00    +0.000 HD
ATOM     15  H   UNL     1      -3.545  10.583 -11.948  0.00  0.00    +0.000 HD
ENDBRANCH  10  12
BRANCH  10  16
ATOM     16  O   UNL     1      -2.795   8.687 -13.298  0.00  0.00    +0.000 OA
ATOM     17  H   UNL     1      -2.543   8.436 -14.203  0.00  0.00    +0.000 HD
ENDBRANCH  10  16
ENDBRANCH   7  10
ENDBRANCH   4   7
ENDBRANCH   1   4
BRANCH   1  18
ATOM     18  C   UNL     1      -2.973   7.084  -9.694  0.00  0.00    +0.000 C 
ATOM     19  H   UNL     1      -2.650   6.189  -9.150  0.00  0.00    +0.000 HD
ATOM     20  H   UNL     1      -2.181   7.321 -10.414  0.00  0.00    +0.000 HD
BRANCH  18  21
ATOM     21  C   UNL     1      -3.105   8.244  -8.701  0.00  0.00    +0.000 C 
ATOM     22  H   UNL     1      -2.415   8.072  -7.865  0.00  0.00    +0.000 HD
ATOM     23  H   UNL     1      -4.117   8.225  -8.276  0.00  0.00    +0.000 HD
BRANCH  21  24
ATOM     24  C   UNL     1      -2.843   9.640  -9.271  0.00  0.00    +0.000 C 
ATOM     25  H   UNL     1      -3.723   9.969  -9.838  0.00  0.00    +0.000 HD
ATOM     26  H   UNL     1      -2.715  10.349  -8.445  0.00  0.00    +0.000 HD
BRANCH  24  27
ATOM     27  C   UNL     1      -1.619   9.711 -10.172  0.00  0.00    +0.000 C 
ATOM     28  H   UNL     1      -1.053   8.776 -10.118  0.00  0.00    +0.000 HD
ATOM     29  H   UNL     1      -0.958  10.529  -9.868  0.00  0.00    +0.000 HD
ATOM     30  H   UNL     1      -1.911   9.875 -11.213  0.00  0.00    +0.000 HD
ENDBRANCH  24  27
ENDBRANCH  21  24
ENDBRANCH  18  21
ENDBRANCH   1  18
TORSDOF 9
ENDMDL
