MODEL 1
REMARK VINA RESULT:    -4.251      0.000      0.000
REMARK INTER + INTRA:          -6.075
REMARK INTER:                  -5.866
REMARK INTRA:                  -0.208
REMARK UNBOUND:                -0.333
REMARK  Name = 8093
REMARK  7 active torsions:
REMARK  status: ('A' for Active; 'I' for Inactive)
REMARK    1  A    between atoms: C_2  and  C_3
REMARK    2  A    between atoms: C_2  and  C_4
REMARK    3  A    between atoms: C_3  and  C_5
REMARK    4  A    between atoms: C_4  and  C_6
REMARK    5  A    between atoms: C_5  and  C_7
REMARK    6  A    between atoms: C_6  and  C_8
REMARK    7  A    between atoms: C_8  and  C_9
REMARK                            x       y       z     vdW  Elec       q    Type
REMARK                         _______ _______ _______ _____ _____    ______ ____
ROOT
ATOM      1  C   UNL     1       4.381   7.987   2.953  0.00  0.00    +0.000 C 
ATOM      2  H   UNL     1       4.292   8.329   3.990  0.00  0.00    +0.000 HD
ATOM      3  H   UNL     1       4.065   6.937   2.929  0.00  0.00    +0.000 HD
ENDROOT
BRANCH   1   4
ATOM      4  C   UNL     1       5.839   8.093   2.497  0.00  0.00    +0.000 C 
ATOM      5  H   UNL     1       5.958   8.966   1.842  0.00  0.00    +0.000 HD
ATOM      6  H   UNL     1       6.103   7.207   1.906  0.00  0.00    +0.000 HD
BRANCH   4   7
ATOM      7  C   UNL     1       6.787   8.212   3.690  0.00  0.00    +0.000 C 
ATOM      8  H   UNL     1       6.691   9.205   4.144  0.00  0.00    +0.000 HD
ATOM      9  H   UNL     1       7.824   8.109   3.353  0.00  0.00    +0.000 HD
BRANCH   7  10
ATOM     10  C   UNL     1       6.495   7.153   4.741  0.00  0.00    +0.000 C 
ATOM     11  H   UNL     1       5.983   6.293   4.300  0.00  0.00    +0.000 HD
ATOM     12  H   UNL     1       5.863   7.556   5.539  0.00  0.00    +0.000 HD
ATOM     13  H   UNL     1       7.427   6.800   5.192  0.00  0.00    +0.000 HD
ENDBRANCH   7  10
ENDBRANCH   4   7
ENDBRANCH   1   4
BRANCH   1  14
ATOM     14  C   UNL     1       3.458   8.817   2.056  0.00  0.00    +0.000 C 
ATOM     15  H   UNL     1       2.606   8.204   1.739  0.00  0.00    +0.000 HD
ATOM     16  H   UNL     1       3.043   9.650   2.639  0.00  0.00    +0.000 HD
BRANCH  14  17
ATOM     17  C   UNL     1       4.176   9.366   0.829  0.00  0.00    +0.000 C 
ATOM     18  H   UNL     1       5.246   9.475   1.039  0.00  0.00    +0.000 HD
ATOM     19  H   UNL     1       4.057   8.673  -0.011  0.00  0.00    +0.000 HD
BRANCH  17  21
ATOM     20  O   UNL     1       3.292  11.561   1.220  0.00  0.00    +0.000 OA
ATOM     21  C   UNL     1       3.656  10.722   0.394  0.00  0.00    +0.000 C 
BRANCH  21  22
ATOM     22  C   UNL     1       3.616  11.013  -1.083  0.00  0.00    +0.000 C 
ATOM     23  H   UNL     1       4.593  10.808  -1.526  0.00  0.00    +0.000 HD
ATOM     24  H   UNL     1       2.867  10.377  -1.560  0.00  0.00    +0.000 HD
ATOM     25  H   UNL     1       3.371  12.066  -1.240  0.00  0.00    +0.000 HD
ENDBRANCH  21  22
ENDBRANCH  17  21
ENDBRANCH  14  17
ENDBRANCH   1  14
TORSDOF 7
ENDMDL
MODEL 2
REMARK VINA RESULT:    -4.198      2.762      4.561
REMARK INTER + INTRA:          -6.003
REMARK INTER:                  -5.423
REMARK INTRA:                  -0.580
REMARK UNBOUND:                -0.333
REMARK  Name = 8093
REMARK  7 active torsions:
REMARK  status: ('A' for Active; 'I' for Inactive)
REMARK    1  A    between atoms: C_2  and  C_3
REMARK    2  A    between atoms: C_2  and  C_4
REMARK    3  A    between atoms: C_3  and  C_5
REMARK    4  A    between atoms: C_4  and  C_6
REMARK    5  A    between atoms: C_5  and  C_7
REMARK    6  A    between atoms: C_6  and  C_8
REMARK    7  A    between atoms: C_8  and  C_9
REMARK                            x       y       z     vdW  Elec       q    Type
REMARK                         _______ _______ _______ _____ _____    ______ ____
ROOT
ATOM      1  C   UNL     1       4.167   9.220   0.374  0.00  0.00    +0.000 C 
ATOM      2  H   UNL     1       4.423   9.444  -0.668  0.00  0.00    +0.000 HD
ATOM      3  H   UNL     1       3.380   8.455   0.357  0.00  0.00    +0.000 HD
ENDROOT
BRANCH   1   4
ATOM      4  C   UNL     1       3.638  10.483   1.059  0.00  0.00    +0.000 C 
ATOM      5  H   UNL     1       4.278  10.732   1.915  0.00  0.00    +0.000 HD
ATOM      6  H   UNL     1       2.632  10.292   1.453  0.00  0.00    +0.000 HD
BRANCH   4   7
ATOM      7  C   UNL     1       3.592  11.663   0.090  0.00  0.00    +0.000 C 
ATOM      8  H   UNL     1       4.530  12.227   0.145  0.00  0.00    +0.000 HD
ATOM      9  H   UNL     1       2.785  12.347   0.374  0.00  0.00    +0.000 HD
BRANCH   7  10
ATOM     10  C   UNL     1       3.373  11.200  -1.342  0.00  0.00    +0.000 C 
ATOM     11  H   UNL     1       3.335  10.107  -1.399  0.00  0.00    +0.000 HD
ATOM     12  H   UNL     1       4.180  11.549  -1.995  0.00  0.00    +0.000 HD
ATOM     13  H   UNL     1       2.428  11.595  -1.728  0.00  0.00    +0.000 HD
ENDBRANCH   7  10
ENDBRANCH   4   7
ENDBRANCH   1   4
BRANCH   1  14
ATOM     14  C   UNL     1       5.398   8.669   1.099  0.00  0.00    +0.000 C 
ATOM     15  H   UNL     1       5.189   8.597   2.174  0.00  0.00    +0.000 HD
ATOM     16  H   UNL     1       5.594   7.646   0.751  0.00  0.00    +0.000 HD
BRANCH  14  17
ATOM     17  C   UNL     1       6.638   9.527   0.877  0.00  0.00    +0.000 C 
ATOM     18  H   UNL     1       6.447  10.553   1.210  0.00  0.00    +0.000 HD
ATOM     19  H   UNL     1       7.476   9.125   1.459  0.00  0.00    +0.000 HD
BRANCH  17  21
ATOM     20  O   UNL     1       7.345   8.566  -1.203  0.00  0.00    +0.000 OA
ATOM     21  C   UNL     1       7.065   9.589  -0.576  0.00  0.00    +0.000 C 
BRANCH  21  22
ATOM     22  C   UNL     1       7.116  10.943  -1.231  0.00  0.00    +0.000 C 
ATOM     23  H   UNL     1       7.792  10.913  -2.089  0.00  0.00    +0.000 HD
ATOM     24  H   UNL     1       6.117  11.221  -1.573  0.00  0.00    +0.000 HD
ATOM     25  H   UNL     1       7.488  11.681  -0.515  0.00  0.00    +0.000 HD
ENDBRANCH  21  22
ENDBRANCH  17  21
ENDBRANCH  14  17
ENDBRANCH   1  14
TORSDOF 7
ENDMDL
MODEL 3
REMARK VINA RESULT:    -4.166     13.484     14.961
REMARK INTER + INTRA:          -5.960
REMARK INTER:                  -5.507
REMARK INTRA:                  -0.453
REMARK UNBOUND:                -0.333
REMARK  Name = 8093
REMARK  7 active torsions:
REMARK  status: ('A' for Active; 'I' for Inactive)
REMARK    1  A    between atoms: C_2  and  C_3
REMARK    2  A    between atoms: C_2  and  C_4
REMARK    3  A    between atoms: C_3  and  C_5
REMARK    4  A    between atoms: C_4  and  C_6
REMARK    5  A    between atoms: C_5  and  C_7
REMARK    6  A    between atoms: C_6  and  C_8
REMARK    7  A    between atoms: C_8  and  C_9
REMARK                            x       y       z     vdW  Elec       q    Type
REMARK                         _______ _______ _______ _____ _____    ______ ____
ROOT
ATOM      1  C   UNL     1      -2.767   9.646  -9.896  0.00  0.00    +0.000 C 
ATOM      2  H   UNL     1      -3.270   9.208 -10.766  0.00  0.00    +0.000 HD
ATOM      3  H   UNL     1      -3.330  10.542  -9.612  0.00  0.00    +0.000 HD
ENDROOT
BRANCH   1   4
ATOM      4  C   UNL     1      -1.335  10.039 -10.272  0.00  0.00    +0.000 C 
ATOM      5  H   UNL     1      -0.624   9.452  -9.676  0.00  0.00    +0.000 HD
ATOM      6  H   UNL     1      -1.169  11.095 -10.025  0.00  0.00    +0.000 HD
BRANCH   4   7
ATOM      7  C   UNL     1      -1.069   9.813 -11.760  0.00  0.00    +0.000 C 
ATOM      8  H   UNL     1      -0.577   8.845 -11.908  0.00  0.00    +0.000 HD
ATOM      9  H   UNL     1      -0.389  10.584 -12.138  0.00  0.00    +0.000 HD
BRANCH   7  10
ATOM     10  C   UNL     1      -2.358   9.844 -12.567  0.00  0.00    +0.000 C 
ATOM     11  H   UNL     1      -2.461   8.941 -13.176  0.00  0.00    +0.000 HD
ATOM     12  H   UNL     1      -2.383  10.713 -13.233  0.00  0.00    +0.000 HD
ATOM     13  H   UNL     1      -3.222   9.904 -11.898  0.00  0.00    +0.000 HD
ENDBRANCH   7  10
ENDBRANCH   4   7
ENDBRANCH   1   4
BRANCH   1  14
ATOM     14  C   UNL     1      -2.781   8.646  -8.736  0.00  0.00    +0.000 C 
ATOM     15  H   UNL     1      -1.751   8.414  -8.439  0.00  0.00    +0.000 HD
ATOM     16  H   UNL     1      -3.259   9.111  -7.865  0.00  0.00    +0.000 HD
BRANCH  14  17
ATOM     17  C   UNL     1      -3.513   7.355  -9.087  0.00  0.00    +0.000 C 
ATOM     18  H   UNL     1      -3.187   6.548  -8.422  0.00  0.00    +0.000 HD
ATOM     19  H   UNL     1      -4.592   7.495  -8.960  0.00  0.00    +0.000 HD
BRANCH  17  21
ATOM     20  O   UNL     1      -2.144   6.553 -10.885  0.00  0.00    +0.000 OA
ATOM     21  C   UNL     1      -3.265   6.902 -10.512  0.00  0.00    +0.000 C 
BRANCH  21  22
ATOM     22  C   UNL     1      -4.442   6.876 -11.450  0.00  0.00    +0.000 C 
ATOM     23  H   UNL     1      -4.240   6.190 -12.277  0.00  0.00    +0.000 HD
ATOM     24  H   UNL     1      -5.330   6.534 -10.913  0.00  0.00    +0.000 HD
ATOM     25  H   UNL     1      -4.608   7.877 -11.855  0.00  0.00    +0.000 HD
ENDBRANCH  21  22
ENDBRANCH  17  21
ENDBRANCH  14  17
ENDBRANCH   1  14
TORSDOF 7
ENDMDL
MODEL 4
REMARK VINA RESULT:    -4.073      3.018      4.183
REMARK INTER + INTRA:          -5.835
REMARK INTER:                  -5.609
REMARK INTRA:                  -0.225
REMARK UNBOUND:                -0.333
REMARK  Name = 8093
REMARK  7 active torsions:
REMARK  status: ('A' for Active; 'I' for Inactive)
REMARK    1  A    between atoms: C_2  and  C_3
REMARK    2  A    between atoms: C_2  and  C_4
REMARK    3  A    between atoms: C_3  and  C_5
REMARK    4  A    between atoms: C_4  and  C_6
REMARK    5  A    between atoms: C_5  and  C_7
REMARK    6  A    between atoms: C_6  and  C_8
REMARK    7  A    between atoms: C_8  and  C_9
REMARK                            x       y       z     vdW  Elec       q    Type
REMARK                         _______ _______ _______ _____ _____    ______ ____
ROOT
ATOM      1  C   UNL     1       6.569  11.075  -0.066  0.00  0.00    +0.000 C 
ATOM      2  H   UNL     1       5.738  11.766  -0.251  0.00  0.00    +0.000 HD
ATOM      3  H   UNL     1       7.230  11.552   0.668  0.00  0.00    +0.000 HD
ENDROOT
BRANCH   1   4
ATOM      4  C   UNL     1       7.339  10.833  -1.367  0.00  0.00    +0.000 C 
ATOM      5  H   UNL     1       7.365  11.758  -1.957  0.00  0.00    +0.000 HD
ATOM      6  H   UNL     1       6.814  10.081  -1.969  0.00  0.00    +0.000 HD
BRANCH   4   7
ATOM      7  C   UNL     1       8.766  10.361  -1.089  0.00  0.00    +0.000 C 
ATOM      8  H   UNL     1       8.960  10.377  -0.011  0.00  0.00    +0.000 HD
ATOM      9  H   UNL     1       9.482  11.044  -1.558  0.00  0.00    +0.000 HD
BRANCH   7  10
ATOM     10  C   UNL     1       8.998   8.953  -1.615  0.00  0.00    +0.000 C 
ATOM     11  H   UNL     1       8.491   8.803  -2.574  0.00  0.00    +0.000 HD
ATOM     12  H   UNL     1       8.626   8.204  -0.909  0.00  0.00    +0.000 HD
ATOM     13  H   UNL     1      10.068   8.776  -1.765  0.00  0.00    +0.000 HD
ENDBRANCH   7  10
ENDBRANCH   4   7
ENDBRANCH   1   4
BRANCH   1  14
ATOM     14  C   UNL     1       6.029   9.763   0.511  0.00  0.00    +0.000 C 
ATOM     15  H   UNL     1       6.574   8.918   0.072  0.00  0.00    +0.000 HD
ATOM     16  H   UNL     1       6.228   9.736   1.590  0.00  0.00    +0.000 HD
BRANCH  14  17
ATOM     17  C   UNL     1       4.534   9.589   0.265  0.00  0.00    +0.000 C 
ATOM     18  H   UNL     1       4.245  10.103  -0.658  0.00  0.00    +0.000 HD
ATOM     19  H   UNL     1       4.298   8.525   0.158  0.00  0.00    +0.000 HD
BRANCH  17  21
ATOM     20  O   UNL     1       3.280  11.313   1.364  0.00  0.00    +0.000 OA
ATOM     21  C   UNL     1       3.680  10.148   1.387  0.00  0.00    +0.000 C 
BRANCH  21  22
ATOM     22  C   UNL     1       3.325   9.223   2.520  0.00  0.00    +0.000 C 
ATOM     23  H   UNL     1       2.713   9.754   3.253  0.00  0.00    +0.000 HD
ATOM     24  H   UNL     1       2.759   8.372   2.133  0.00  0.00    +0.000 HD
ATOM     25  H   UNL     1       4.239   8.876   3.008  0.00  0.00    +0.000 HD
ENDBRANCH  21  22
ENDBRANCH  17  21
ENDBRANCH  14  17
ENDBRANCH   1  14
TORSDOF 7
ENDMDL
MODEL 5
REMARK VINA RESULT:    -4.038     13.814     14.874
REMARK INTER + INTRA:          -5.787
REMARK INTER:                  -5.304
REMARK INTRA:                  -0.483
REMARK UNBOUND:                -0.333
REMARK  Name = 8093
REMARK  7 active torsions:
REMARK  status: ('A' for Active; 'I' for Inactive)
REMARK    1  A    between atoms: C_2  and  C_3
REMARK    2  A    between atoms: C_2  and  C_4
REMARK    3  A    between atoms: C_3  and  C_5
REMARK    4  A    between atoms: C_4  and  C_6
REMARK    5  A    between atoms: C_5  and  C_7
REMARK    6  A    between atoms: C_6  and  C_8
REMARK    7  A    between atoms: C_8  and  C_9
REMARK                            x       y       z     vdW  Elec       q    Type
REMARK                         _______ _______ _______ _____ _____    ______ ____
ROOT
ATOM      1  C   UNL     1      -2.916   9.362  -9.922  0.00  0.00    +0.000 C 
ATOM      2  H   UNL     1      -3.585  10.219  -9.782  0.00  0.00    +0.000 HD
ATOM      3  H   UNL     1      -3.228   8.853 -10.842  0.00  0.00    +0.000 HD
ENDROOT
BRANCH   1   4
ATOM      4  C   UNL     1      -3.052   8.402  -8.736  0.00  0.00    +0.000 C 
ATOM      5  H   UNL     1      -3.916   8.692  -8.125  0.00  0.00    +0.000 HD
ATOM      6  H   UNL     1      -2.163   8.481  -8.098  0.00  0.00    +0.000 HD
BRANCH   4   7
ATOM      7  C   UNL     1      -3.216   6.957  -9.207  0.00  0.00    +0.000 C 
ATOM      8  H   UNL     1      -3.740   6.373  -8.441  0.00  0.00    +0.000 HD
ATOM      9  H   UNL     1      -2.231   6.498  -9.348  0.00  0.00    +0.000 HD
BRANCH   7  10
ATOM     10  C   UNL     1      -3.995   6.881 -10.510  0.00  0.00    +0.000 C 
ATOM     11  H   UNL     1      -5.072   6.842 -10.322  0.00  0.00    +0.000 HD
ATOM     12  H   UNL     1      -3.714   5.992 -11.084  0.00  0.00    +0.000 HD
ATOM     13  H   UNL     1      -3.789   7.762 -11.127  0.00  0.00    +0.000 HD
ENDBRANCH   7  10
ENDBRANCH   4   7
ENDBRANCH   1   4
BRANCH   1  14
ATOM     14  C   UNL     1      -1.474   9.854 -10.075  0.00  0.00    +0.000 C 
ATOM     15  H   UNL     1      -1.343  10.785  -9.509  0.00  0.00    +0.000 HD
ATOM     16  H   UNL     1      -0.793   9.119  -9.628  0.00  0.00    +0.000 HD
BRANCH  14  17
ATOM     17  C   UNL     1      -1.088  10.083 -11.532  0.00  0.00    +0.000 C 
ATOM     18  H   UNL     1      -1.552  11.004 -11.901  0.00  0.00    +0.000 HD
ATOM     19  H   UNL     1       0.000  10.187 -11.614  0.00  0.00    +0.000 HD
BRANCH  17  21
ATOM     20  O   UNL     1      -2.407   9.118 -13.286  0.00  0.00    +0.000 OA
ATOM     21  C   UNL     1      -1.521   8.954 -12.445  0.00  0.00    +0.000 C 
BRANCH  21  22
ATOM     22  C   UNL     1      -0.818   7.631 -12.301  0.00  0.00    +0.000 C 
ATOM     23  H   UNL     1      -0.312   7.377 -13.236  0.00  0.00    +0.000 HD
ATOM     24  H   UNL     1      -0.076   7.697 -11.501  0.00  0.00    +0.000 HD
ATOM     25  H   UNL     1      -1.550   6.852 -12.072  0.00  0.00    +0.000 HD
ENDBRANCH  21  22
ENDBRANCH  17  21
ENDBRANCH  14  17
ENDBRANCH   1  14
TORSDOF 7
ENDMDL
MODEL 6
REMARK VINA RESULT:    -4.021     13.851     15.085
REMARK INTER + INTRA:          -5.764
REMARK INTER:                  -5.339
REMARK INTRA:                  -0.425
REMARK UNBOUND:                -0.333
REMARK  Name = 8093
REMARK  7 active torsions:
REMARK  status: ('A' for Active; 'I' for Inactive)
REMARK    1  A    between atoms: C_2  and  C_3
REMARK    2  A    between atoms: C_2  and  C_4
REMARK    3  A    between atoms: C_3  and  C_5
REMARK    4  A    between atoms: C_4  and  C_6
REMARK    5  A    between atoms: C_5  and  C_7
REMARK    6  A    between atoms: C_6  and  C_8
REMARK    7  A    between atoms: C_8  and  C_9
REMARK                            x       y       z     vdW  Elec       q    Type
REMARK                         _______ _______ _______ _____ _____    ______ ____
ROOT
ATOM      1  C   UNL     1      -3.410   7.415 -11.249  0.00  0.00    +0.000 C 
ATOM      2  H   UNL     1      -3.483   8.498 -11.101  0.00  0.00    +0.000 HD
ATOM      3  H   UNL     1      -4.407   7.059 -11.539  0.00  0.00    +0.000 HD
ENDROOT
BRANCH   1   4
ATOM      4  C   UNL     1      -2.986   6.741  -9.941  0.00  0.00    +0.000 C 
ATOM      5  H   UNL     1      -1.932   6.444 -10.006  0.00  0.00    +0.000 HD
ATOM      6  H   UNL     1      -3.572   5.825  -9.794  0.00  0.00    +0.000 HD
BRANCH   4   7
ATOM      7  C   UNL     1      -3.186   7.673  -8.746  0.00  0.00    +0.000 C 
ATOM      8  H   UNL     1      -2.588   7.323  -7.897  0.00  0.00    +0.000 HD
ATOM      9  H   UNL     1      -4.236   7.655  -8.433  0.00  0.00    +0.000 HD
BRANCH   7  10
ATOM     10  C   UNL     1      -2.788   9.101  -9.081  0.00  0.00    +0.000 C 
ATOM     11  H   UNL     1      -3.195   9.406 -10.050  0.00  0.00    +0.000 HD
ATOM     12  H   UNL     1      -1.699   9.206  -9.118  0.00  0.00    +0.000 HD
ATOM     13  H   UNL     1      -3.170   9.789  -8.320  0.00  0.00    +0.000 HD
ENDBRANCH   7  10
ENDBRANCH   4   7
ENDBRANCH   1   4
BRANCH   1  14
ATOM     14  C   UNL     1      -2.416   7.116 -12.375  0.00  0.00    +0.000 C 
ATOM     15  H   UNL     1      -2.439   6.045 -12.610  0.00  0.00    +0.000 HD
ATOM     16  H   UNL     1      -2.733   7.642 -13.285  0.00  0.00    +0.000 HD
BRANCH  14  17
ATOM     17  C   UNL     1      -0.992   7.530 -12.020  0.00  0.00    +0.000 C 
ATOM     18  H   UNL     1      -0.900   7.662 -10.937  0.00  0.00    +0.000 HD
ATOM     19  H   UNL     1      -0.290   6.749 -12.334  0.00  0.00    +0.000 HD
BRANCH  17  21
ATOM     20  O   UNL     1       0.018   8.835 -13.760  0.00  0.00    +0.000 OA
ATOM     21  C   UNL     1      -0.571   8.829 -12.677  0.00  0.00    +0.000 C 
BRANCH  21  22
ATOM     22  C   UNL     1      -0.913  10.112 -11.968  0.00  0.00    +0.000 C 
ATOM     23  H   UNL     1      -0.033  10.759 -11.928  0.00  0.00    +0.000 HD
ATOM     24  H   UNL     1      -1.709  10.628 -12.511  0.00  0.00    +0.000 HD
ATOM     25  H   UNL     1      -1.235   9.890 -10.948  0.00  0.00    +0.000 HD
ENDBRANCH  21  22
ENDBRANCH  17  21
ENDBRANCH  14  17
ENDBRANCH   1  14
TORSDOF 7
ENDMDL
MODEL 7
REMARK VINA RESULT:    -3.886     13.524     15.029
REMARK INTER + INTRA:          -5.582
REMARK INTER:                  -5.101
REMARK INTRA:                  -0.480
REMARK UNBOUND:                -0.333
REMARK  Name = 8093
REMARK  7 active torsions:
REMARK  status: ('A' for Active; 'I' for Inactive)
REMARK    1  A    between atoms: C_2  and  C_3
REMARK    2  A    between atoms: C_2  and  C_4
REMARK    3  A    between atoms: C_3  and  C_5
REMARK    4  A    between atoms: C_4  and  C_6
REMARK    5  A    between atoms: C_5  and  C_7
REMARK    6  A    between atoms: C_6  and  C_8
REMARK    7  A    between atoms: C_8  and  C_9
REMARK                            x       y       z     vdW  Elec       q    Type
REMARK                         _______ _______ _______ _____ _____    ______ ____
ROOT
ATOM      1  C   UNL     1      -1.912   6.707 -11.146  0.00  0.00    +0.000 C 
ATOM      2  H   UNL     1      -1.529   5.688 -11.015  0.00  0.00    +0.000 HD
ATOM      3  H   UNL     1      -1.320   7.363 -10.495  0.00  0.00    +0.000 HD
ENDROOT
BRANCH   1   4
ATOM      4  C   UNL     1      -3.384   6.764 -10.727  0.00  0.00    +0.000 C 
ATOM      5  H   UNL     1      -3.891   5.842 -11.039  0.00  0.00    +0.000 HD
ATOM      6  H   UNL     1      -3.880   7.596 -11.244  0.00  0.00    +0.000 HD
BRANCH   4   7
ATOM      7  C   UNL     1      -3.526   6.944  -9.216  0.00  0.00    +0.000 C 
ATOM      8  H   UNL     1      -2.956   6.167  -8.694  0.00  0.00    +0.000 HD
ATOM      9  H   UNL     1      -4.575   6.829  -8.925  0.00  0.00    +0.000 HD
BRANCH   7  10
ATOM     10  C   UNL     1      -3.029   8.310  -8.769  0.00  0.00    +0.000 C 
ATOM     11  H   UNL     1      -1.940   8.380  -8.857  0.00  0.00    +0.000 HD
ATOM     12  H   UNL     1      -3.303   8.505  -7.727  0.00  0.00    +0.000 HD
ATOM     13  H   UNL     1      -3.471   9.096  -9.389  0.00  0.00    +0.000 HD
ENDBRANCH   7  10
ENDBRANCH   4   7
ENDBRANCH   1   4
BRANCH   1  14
ATOM     14  C   UNL     1      -1.733   7.140 -12.604  0.00  0.00    +0.000 C 
ATOM     15  H   UNL     1      -1.269   6.326 -13.174  0.00  0.00    +0.000 HD
ATOM     16  H   UNL     1      -2.720   7.312 -13.052  0.00  0.00    +0.000 HD
BRANCH  14  17
ATOM     17  C   UNL     1      -0.888   8.403 -12.738  0.00  0.00    +0.000 C 
ATOM     18  H   UNL     1       0.107   8.234 -12.310  0.00  0.00    +0.000 HD
ATOM     19  H   UNL     1      -0.771   8.659 -13.796  0.00  0.00    +0.000 HD
BRANCH  17  21
ATOM     20  O   UNL     1      -0.877  10.196 -11.145  0.00  0.00    +0.000 OA
ATOM     21  C   UNL     1      -1.493   9.599 -12.030  0.00  0.00    +0.000 C 
BRANCH  21  22
ATOM     22  C   UNL     1      -2.865  10.043 -12.460  0.00  0.00    +0.000 C 
ATOM     23  H   UNL     1      -3.574   9.900 -11.640  0.00  0.00    +0.000 HD
ATOM     24  H   UNL     1      -2.840  11.102 -12.728  0.00  0.00    +0.000 HD
ATOM     25  H   UNL     1      -3.191   9.446 -13.316  0.00  0.00    +0.000 HD
ENDBRANCH  21  22
ENDBRANCH  17  21
ENDBRANCH  14  17
ENDBRANCH   1  14
TORSDOF 7
ENDMDL
MODEL 8
REMARK VINA RESULT:    -3.885     13.015     14.373
REMARK INTER + INTRA:          -5.581
REMARK INTER:                  -5.296
REMARK INTRA:                  -0.285
REMARK UNBOUND:                -0.333
REMARK  Name = 8093
REMARK  7 active torsions:
REMARK  status: ('A' for Active; 'I' for Inactive)
REMARK    1  A    between atoms: C_2  and  C_3
REMARK    2  A    between atoms: C_2  and  C_4
REMARK    3  A    between atoms: C_3  and  C_5
REMARK    4  A    between atoms: C_4  and  C_6
REMARK    5  A    between atoms: C_5  and  C_7
REMARK    6  A    between atoms: C_6  and  C_8
REMARK    7  A    between atoms: C_8  and  C_9
REMARK                            x       y       z     vdW  Elec       q    Type
REMARK                         _______ _______ _______ _____ _____    ______ ____
ROOT
ATOM      1  C   UNL     1      -7.635  11.461   4.883  0.00  0.00    +0.000 C 
ATOM      2  H   UNL     1      -6.718  11.062   5.332  0.00  0.00    +0.000 HD
ATOM      3  H   UNL     1      -7.752  10.982   3.904  0.00  0.00    +0.000 HD
ENDROOT
BRANCH   1   4
ATOM      4  C   UNL     1      -7.504  12.976   4.700  0.00  0.00    +0.000 C 
ATOM      5  H   UNL     1      -8.334  13.481   5.210  0.00  0.00    +0.000 HD
ATOM      6  H   UNL     1      -7.580  13.224   3.634  0.00  0.00    +0.000 HD
BRANCH   4   7
ATOM      7  C   UNL     1      -6.173  13.489   5.250  0.00  0.00    +0.000 C 
ATOM      8  H   UNL     1      -5.842  14.359   4.672  0.00  0.00    +0.000 HD
ATOM      9  H   UNL     1      -5.404  12.716   5.144  0.00  0.00    +0.000 HD
BRANCH   7  10
ATOM     10  C   UNL     1      -6.290  13.880   6.715  0.00  0.00    +0.000 C 
ATOM     11  H   UNL     1      -6.933  14.758   6.836  0.00  0.00    +0.000 HD
ATOM     12  H   UNL     1      -5.307  14.113   7.138  0.00  0.00    +0.000 HD
ATOM     13  H   UNL     1      -6.723  13.059   7.294  0.00  0.00    +0.000 HD
ENDBRANCH   7  10
ENDBRANCH   4   7
ENDBRANCH   1   4
BRANCH   1  14
ATOM     14  C   UNL     1      -8.835  11.111   5.768  0.00  0.00    +0.000 C 
ATOM     15  H   UNL     1      -9.573  11.921   5.722  0.00  0.00    +0.000 HD
ATOM     16  H   UNL     1      -9.329  10.216   5.368  0.00  0.00    +0.000 HD
BRANCH  14  17
ATOM     17  C   UNL     1      -8.438  10.866   7.220  0.00  0.00    +0.000 C 
ATOM     18  H   UNL     1      -7.380  10.588   7.276  0.00  0.00    +0.000 HD
ATOM     19  H   UNL     1      -8.588  11.780   7.804  0.00  0.00    +0.000 HD
BRANCH  17  21
ATOM     20  O   UNL     1      -8.752   9.061   8.767  0.00  0.00    +0.000 OA
ATOM     21  C   UNL     1      -9.238   9.756   7.873  0.00  0.00    +0.000 C 
BRANCH  21  22
ATOM     22  C   UNL     1     -10.653   9.546   7.403  0.00  0.00    +0.000 C 
ATOM     23  H   UNL     1     -10.968   8.523   7.627  0.00  0.00    +0.000 HD
ATOM     24  H   UNL     1     -11.316  10.244   7.919  0.00  0.00    +0.000 HD
ATOM     25  H   UNL     1     -10.705   9.702   6.323  0.00  0.00    +0.000 HD
ENDBRANCH  21  22
ENDBRANCH  17  21
ENDBRANCH  14  17
ENDBRANCH   1  14
TORSDOF 7
ENDMDL
MODEL 9
REMARK VINA RESULT:    -3.857      1.572      2.426
REMARK INTER + INTRA:          -5.542
REMARK INTER:                  -5.352
REMARK INTRA:                  -0.190
REMARK UNBOUND:                -0.333
REMARK  Name = 8093
REMARK  7 active torsions:
REMARK  status: ('A' for Active; 'I' for Inactive)
REMARK    1  A    between atoms: C_2  and  C_3
REMARK    2  A    between atoms: C_2  and  C_4
REMARK    3  A    between atoms: C_3  and  C_5
REMARK    4  A    between atoms: C_4  and  C_6
REMARK    5  A    between atoms: C_5  and  C_7
REMARK    6  A    between atoms: C_6  and  C_8
REMARK    7  A    between atoms: C_8  and  C_9
REMARK                            x       y       z     vdW  Elec       q    Type
REMARK                         _______ _______ _______ _____ _____    ______ ____
ROOT
ATOM      1  C   UNL     1       5.840   7.270   4.564  0.00  0.00    +0.000 C 
ATOM      2  H   UNL     1       5.361   7.511   5.520  0.00  0.00    +0.000 HD
ATOM      3  H   UNL     1       6.248   6.255   4.652  0.00  0.00    +0.000 HD
ENDROOT
BRANCH   1   4
ATOM      4  C   UNL     1       6.978   8.257   4.293  0.00  0.00    +0.000 C 
ATOM      5  H   UNL     1       6.578   9.154   3.803  0.00  0.00    +0.000 HD
ATOM      6  H   UNL     1       7.699   7.805   3.600  0.00  0.00    +0.000 HD
BRANCH   4   7
ATOM      7  C   UNL     1       7.691   8.652   5.586  0.00  0.00    +0.000 C 
ATOM      8  H   UNL     1       8.305   7.817   5.942  0.00  0.00    +0.000 HD
ATOM      9  H   UNL     1       6.954   8.870   6.366  0.00  0.00    +0.000 HD
BRANCH   7  10
ATOM     10  C   UNL     1       8.578   9.870   5.382  0.00  0.00    +0.000 C 
ATOM     11  H   UNL     1       7.978  10.768   5.207  0.00  0.00    +0.000 HD
ATOM     12  H   UNL     1       9.247   9.731   4.526  0.00  0.00    +0.000 HD
ATOM     13  H   UNL     1       9.195  10.042   6.270  0.00  0.00    +0.000 HD
ENDBRANCH   7  10
ENDBRANCH   4   7
ENDBRANCH   1   4
BRANCH   1  14
ATOM     14  C   UNL     1       4.797   7.304   3.443  0.00  0.00    +0.000 C 
ATOM     15  H   UNL     1       4.698   6.303   3.005  0.00  0.00    +0.000 HD
ATOM     16  H   UNL     1       3.818   7.556   3.870  0.00  0.00    +0.000 HD
BRANCH  14  17
ATOM     17  C   UNL     1       5.148   8.307   2.350  0.00  0.00    +0.000 C 
ATOM     18  H   UNL     1       5.880   9.030   2.727  0.00  0.00    +0.000 HD
ATOM     19  H   UNL     1       5.587   7.784   1.494  0.00  0.00    +0.000 HD
BRANCH  17  21
ATOM     20  O   UNL     1       3.132   9.572   2.644  0.00  0.00    +0.000 OA
ATOM     21  C   UNL     1       3.947   9.089   1.856  0.00  0.00    +0.000 C 
BRANCH  21  22
ATOM     22  C   UNL     1       3.796   9.270   0.369  0.00  0.00    +0.000 C 
ATOM     23  H   UNL     1       4.136  10.268   0.082  0.00  0.00    +0.000 HD
ATOM     24  H   UNL     1       4.401   8.524  -0.152  0.00  0.00    +0.000 HD
ATOM     25  H   UNL     1       2.744   9.163   0.093  0.00  0.00    +0.000 HD
ENDBRANCH  21  22
ENDBRANCH  17  21
ENDBRANCH  14  17
ENDBRANCH   1  14
TORSDOF 7
ENDMDL
MODEL 10
REMARK VINA RESULT:    -3.628     27.444     28.377
REMARK INTER + INTRA:          -5.233
REMARK INTER:                  -4.900
REMARK INTRA:                  -0.333
REMARK UNBOUND:                -0.333
REMARK  Name = 8093
REMARK  7 active torsions:
REMARK  status: ('A' for Active; 'I' for Inactive)
REMARK    1  A    between atoms: C_2  and  C_3
REMARK    2  A    between atoms: C_2  and  C_4
REMARK    3  A    between atoms: C_3  and  C_5
REMARK    4  A    between atoms: C_4  and  C_6
REMARK    5  A    between atoms: C_5  and  C_7
REMARK    6  A    between atoms: C_6  and  C_8
REMARK    7  A    between atoms: C_8  and  C_9
REMARK                            x       y       z     vdW  Elec       q    Type
REMARK                         _______ _______ _______ _____ _____    ______ ____
ROOT
ATOM      1  C   UNL     1     -20.745  -3.309   3.688  0.00  0.00    +0.000 C 
ATOM      2  H   UNL     1     -21.267  -3.824   2.874  0.00  0.00    +0.000 HD
ATOM      3  H   UNL     1     -19.778  -2.974   3.294  0.00  0.00    +0.000 HD
ENDROOT
BRANCH   1   4
ATOM      4  C   UNL     1     -20.516  -4.279   4.851  0.00  0.00    +0.000 C 
ATOM      5  H   UNL     1     -21.392  -4.930   4.965  0.00  0.00    +0.000 HD
ATOM      6  H   UNL     1     -20.410  -3.713   5.785  0.00  0.00    +0.000 HD
BRANCH   4   7
ATOM      7  C   UNL     1     -19.267  -5.131   4.625  0.00  0.00    +0.000 C 
ATOM      8  H   UNL     1     -19.511  -6.191   4.755  0.00  0.00    +0.000 HD
ATOM      9  H   UNL     1     -18.505  -4.879   5.371  0.00  0.00    +0.000 HD
BRANCH   7  10
ATOM     10  C   UNL     1     -18.693  -4.919   3.233  0.00  0.00    +0.000 C 
ATOM     11  H   UNL     1     -19.479  -4.650   2.521  0.00  0.00    +0.000 HD
ATOM     12  H   UNL     1     -18.197  -5.826   2.871  0.00  0.00    +0.000 HD
ATOM     13  H   UNL     1     -17.954  -4.112   3.247  0.00  0.00    +0.000 HD
ENDBRANCH   7  10
ENDBRANCH   4   7
ENDBRANCH   1   4
BRANCH   1  14
ATOM     14  C   UNL     1     -21.562  -2.093   4.134  0.00  0.00    +0.000 C 
ATOM     15  H   UNL     1     -21.872  -1.516   3.254  0.00  0.00    +0.000 HD
ATOM     16  H   UNL     1     -22.484  -2.437   4.622  0.00  0.00    +0.000 HD
BRANCH  14  17
ATOM     17  C   UNL     1     -20.791  -1.189   5.089  0.00  0.00    +0.000 C 
ATOM     18  H   UNL     1     -19.787  -1.595   5.259  0.00  0.00    +0.000 HD
ATOM     19  H   UNL     1     -20.690  -0.189   4.653  0.00  0.00    +0.000 HD
BRANCH  17  21
ATOM     20  O   UNL     1     -20.907  -0.450   7.368  0.00  0.00    +0.000 OA
ATOM     21  C   UNL     1     -21.461  -1.045   6.441  0.00  0.00    +0.000 C 
BRANCH  21  22
ATOM     22  C   UNL     1     -22.834  -1.640   6.606  0.00  0.00    +0.000 C 
ATOM     23  H   UNL     1     -23.420  -1.030   7.299  0.00  0.00    +0.000 HD
ATOM     24  H   UNL     1     -23.340  -1.664   5.638  0.00  0.00    +0.000 HD
ATOM     25  H   UNL     1     -22.747  -2.650   7.012  0.00  0.00    +0.000 HD
ENDBRANCH  21  22
ENDBRANCH  17  21
ENDBRANCH  14  17
ENDBRANCH   1  14
TORSDOF 7
ENDMDL
