MODEL 1
REMARK VINA RESULT:    -3.555      0.000      0.000
REMARK INTER + INTRA:          -4.218
REMARK INTER:                  -4.144
REMARK INTRA:                  -0.074
REMARK UNBOUND:                -0.040
REMARK  Name = 7895
REMARK  4 active torsions:
REMARK  status: ('A' for Active; 'I' for Inactive)
REMARK    1  A    between atoms: C_2  and  C_3
REMARK    2  A    between atoms: C_2  and  C_4
REMARK    3  A    between atoms: C_3  and  C_5
REMARK    4  A    between atoms: C_5  and  C_6
REMARK                            x       y       z     vdW  Elec       q    Type
REMARK                         _______ _______ _______ _____ _____    ______ ____
ROOT
ATOM      1  C   UNL     1       5.428  11.961   0.198  0.00  0.00    +0.000 C 
ATOM      2  H   UNL     1       5.621  12.422   1.174  0.00  0.00    +0.000 HD
ATOM      3  H   UNL     1       5.627  12.702  -0.584  0.00  0.00    +0.000 HD
ENDROOT
BRANCH   1   4
ATOM      4  C   UNL     1       6.335  10.749   0.007  0.00  0.00    +0.000 C 
ATOM      5  H   UNL     1       6.968  10.613   0.893  0.00  0.00    +0.000 HD
ATOM      6  H   UNL     1       5.729   9.840  -0.093  0.00  0.00    +0.000 HD
BRANCH   4   7
ATOM      7  C   UNL     1       7.217  10.900  -1.222  0.00  0.00    +0.000 C 
ATOM      8  H   UNL     1       7.666   9.942  -1.502  0.00  0.00    +0.000 HD
ATOM      9  H   UNL     1       8.023  11.619  -1.040  0.00  0.00    +0.000 HD
ATOM     10  H   UNL     1       6.627  11.260  -2.070  0.00  0.00    +0.000 HD
ENDBRANCH   4   7
ENDBRANCH   1   4
BRANCH   1  12
ATOM     11  O   UNL     1       3.220  11.617   1.121  0.00  0.00    +0.000 OA
ATOM     12  C   UNL     1       3.954  11.601   0.134  0.00  0.00    +0.000 C 
BRANCH  12  13
ATOM     13  C   UNL     1       3.424  11.216  -1.223  0.00  0.00    +0.000 C 
ATOM     14  H   UNL     1       3.695  11.983  -1.953  0.00  0.00    +0.000 HD
ATOM     15  H   UNL     1       2.338  11.108  -1.173  0.00  0.00    +0.000 HD
ATOM     16  H   UNL     1       3.861  10.263  -1.533  0.00  0.00    +0.000 HD
ENDBRANCH  12  13
ENDBRANCH   1  12
TORSDOF 4
ENDMDL
MODEL 2
REMARK VINA RESULT:    -3.543     12.206     12.771
REMARK INTER + INTRA:          -4.204
REMARK INTER:                  -4.173
REMARK INTRA:                  -0.031
REMARK UNBOUND:                -0.040
REMARK  Name = 7895
REMARK  4 active torsions:
REMARK  status: ('A' for Active; 'I' for Inactive)
REMARK    1  A    between atoms: C_2  and  C_3
REMARK    2  A    between atoms: C_2  and  C_4
REMARK    3  A    between atoms: C_3  and  C_5
REMARK    4  A    between atoms: C_5  and  C_6
REMARK                            x       y       z     vdW  Elec       q    Type
REMARK                         _______ _______ _______ _____ _____    ______ ____
ROOT
ATOM      1  C   UNL     1      -2.783   8.689  -8.834  0.00  0.00    +0.000 C 
ATOM      2  H   UNL     1      -1.768   8.541  -8.449  0.00  0.00    +0.000 HD
ATOM      3  H   UNL     1      -3.413   9.067  -8.021  0.00  0.00    +0.000 HD
ENDROOT
BRANCH   1   4
ATOM      4  C   UNL     1      -2.762   9.693  -9.983  0.00  0.00    +0.000 C 
ATOM      5  H   UNL     1      -3.294   9.280 -10.849  0.00  0.00    +0.000 HD
ATOM      6  H   UNL     1      -3.293  10.607  -9.692  0.00  0.00    +0.000 HD
BRANCH   4   7
ATOM      7  C   UNL     1      -1.341  10.047 -10.388  0.00  0.00    +0.000 C 
ATOM      8  H   UNL     1      -1.243  10.090 -11.478  0.00  0.00    +0.000 HD
ATOM      9  H   UNL     1      -0.628   9.308 -10.007  0.00  0.00    +0.000 HD
ATOM     10  H   UNL     1      -1.063  11.025  -9.983  0.00  0.00    +0.000 HD
ENDBRANCH   4   7
ENDBRANCH   1   4
BRANCH   1  12
ATOM     11  O   UNL     1      -4.191   6.735  -8.615  0.00  0.00    +0.000 OA
ATOM     12  C   UNL     1      -3.327   7.335  -9.254  0.00  0.00    +0.000 C 
BRANCH  12  13
ATOM     13  C   UNL     1      -2.746   6.748 -10.514  0.00  0.00    +0.000 C 
ATOM     14  H   UNL     1      -2.889   7.446 -11.342  0.00  0.00    +0.000 HD
ATOM     15  H   UNL     1      -3.234   5.796 -10.733  0.00  0.00    +0.000 HD
ATOM     16  H   UNL     1      -1.674   6.573 -10.380  0.00  0.00    +0.000 HD
ENDBRANCH  12  13
ENDBRANCH   1  12
TORSDOF 4
ENDMDL
MODEL 3
REMARK VINA RESULT:    -3.539      2.020      2.807
REMARK INTER + INTRA:          -4.199
REMARK INTER:                  -4.127
REMARK INTRA:                  -0.072
REMARK UNBOUND:                -0.040
REMARK  Name = 7895
REMARK  4 active torsions:
REMARK  status: ('A' for Active; 'I' for Inactive)
REMARK    1  A    between atoms: C_2  and  C_3
REMARK    2  A    between atoms: C_2  and  C_4
REMARK    3  A    between atoms: C_3  and  C_5
REMARK    4  A    between atoms: C_5  and  C_6
REMARK                            x       y       z     vdW  Elec       q    Type
REMARK                         _______ _______ _______ _____ _____    ______ ____
ROOT
ATOM      1  C   UNL     1       3.536  11.309   0.647  0.00  0.00    +0.000 C 
ATOM      2  H   UNL     1       4.018  12.117   1.209  0.00  0.00    +0.000 HD
ATOM      3  H   UNL     1       2.466  11.531   0.566  0.00  0.00    +0.000 HD
ENDROOT
BRANCH   1   4
ATOM      4  C   UNL     1       4.151  11.205  -0.745  0.00  0.00    +0.000 C 
ATOM      5  H   UNL     1       4.821  12.055  -0.923  0.00  0.00    +0.000 HD
ATOM      6  H   UNL     1       4.764  10.298  -0.817  0.00  0.00    +0.000 HD
BRANCH   4   7
ATOM      7  C   UNL     1       3.083  11.172  -1.826  0.00  0.00    +0.000 C 
ATOM      8  H   UNL     1       3.130  12.070  -2.451  0.00  0.00    +0.000 HD
ATOM      9  H   UNL     1       2.082  11.111  -1.386  0.00  0.00    +0.000 HD
ATOM     10  H   UNL     1       3.223  10.301  -2.472  0.00  0.00    +0.000 HD
ENDBRANCH   4   7
ENDBRANCH   1   4
BRANCH   1  12
ATOM     11  O   UNL     1       3.147   9.856   2.541  0.00  0.00    +0.000 OA
ATOM     12  C   UNL     1       3.687  10.028   1.448  0.00  0.00    +0.000 C 
BRANCH  12  13
ATOM     13  C   UNL     1       4.547   8.956   0.830  0.00  0.00    +0.000 C 
ATOM     14  H   UNL     1       5.401   8.752   1.481  0.00  0.00    +0.000 HD
ATOM     15  H   UNL     1       4.890   9.285  -0.153  0.00  0.00    +0.000 HD
ATOM     16  H   UNL     1       3.964   8.038   0.713  0.00  0.00    +0.000 HD
ENDBRANCH  12  13
ENDBRANCH   1  12
TORSDOF 4
ENDMDL
MODEL 4
REMARK VINA RESULT:    -3.476     12.204     12.967
REMARK INTER + INTRA:          -4.125
REMARK INTER:                  -4.068
REMARK INTRA:                  -0.056
REMARK UNBOUND:                -0.040
REMARK  Name = 7895
REMARK  4 active torsions:
REMARK  status: ('A' for Active; 'I' for Inactive)
REMARK    1  A    between atoms: C_2  and  C_3
REMARK    2  A    between atoms: C_2  and  C_4
REMARK    3  A    between atoms: C_3  and  C_5
REMARK    4  A    between atoms: C_5  and  C_6
REMARK                            x       y       z     vdW  Elec       q    Type
REMARK                         _______ _______ _______ _____ _____    ______ ____
ROOT
ATOM      1  C   UNL     1      -2.741   8.554  -9.074  0.00  0.00    +0.000 C 
ATOM      2  H   UNL     1      -3.631   8.997  -8.612  0.00  0.00    +0.000 HD
ATOM      3  H   UNL     1      -1.960   8.465  -8.311  0.00  0.00    +0.000 HD
ENDROOT
BRANCH   1   4
ATOM      4  C   UNL     1      -3.079   7.176  -9.635  0.00  0.00    +0.000 C 
ATOM      5  H   UNL     1      -3.378   7.263 -10.686  0.00  0.00    +0.000 HD
ATOM      6  H   UNL     1      -2.190   6.534  -9.610  0.00  0.00    +0.000 HD
BRANCH   4   7
ATOM      7  C   UNL     1      -4.197   6.512  -8.847  0.00  0.00    +0.000 C 
ATOM      8  H   UNL     1      -3.798   5.964  -7.988  0.00  0.00    +0.000 HD
ATOM      9  H   UNL     1      -4.755   5.809  -9.475  0.00  0.00    +0.000 HD
ATOM     10  H   UNL     1      -4.898   7.265  -8.476  0.00  0.00    +0.000 HD
ENDBRANCH   4   7
ENDBRANCH   1   4
BRANCH   1  12
ATOM     11  O   UNL     1      -1.117  10.010 -10.118  0.00  0.00    +0.000 OA
ATOM     12  C   UNL     1      -2.242   9.511 -10.141  0.00  0.00    +0.000 C 
BRANCH  12  13
ATOM     13  C   UNL     1      -3.210   9.830 -11.252  0.00  0.00    +0.000 C 
ATOM     14  H   UNL     1      -4.137   9.271 -11.101  0.00  0.00    +0.000 HD
ATOM     15  H   UNL     1      -2.762   9.567 -12.213  0.00  0.00    +0.000 HD
ATOM     16  H   UNL     1      -3.437  10.899 -11.248  0.00  0.00    +0.000 HD
ENDBRANCH  12  13
ENDBRANCH   1  12
TORSDOF 4
ENDMDL
MODEL 5
REMARK VINA RESULT:    -3.425      2.029      2.843
REMARK INTER + INTRA:          -4.066
REMARK INTER:                  -3.977
REMARK INTRA:                  -0.089
REMARK UNBOUND:                -0.040
REMARK  Name = 7895
REMARK  4 active torsions:
REMARK  status: ('A' for Active; 'I' for Inactive)
REMARK    1  A    between atoms: C_2  and  C_3
REMARK    2  A    between atoms: C_2  and  C_4
REMARK    3  A    between atoms: C_3  and  C_5
REMARK    4  A    between atoms: C_5  and  C_6
REMARK                            x       y       z     vdW  Elec       q    Type
REMARK                         _______ _______ _______ _____ _____    ______ ____
ROOT
ATOM      1  C   UNL     1       4.833   9.893   0.450  0.00  0.00    +0.000 C 
ATOM      2  H   UNL     1       5.597  10.089   1.210  0.00  0.00    +0.000 HD
ATOM      3  H   UNL     1       5.310   9.406  -0.408  0.00  0.00    +0.000 HD
ENDROOT
BRANCH   1   4
ATOM      4  C   UNL     1       3.748   8.986   1.025  0.00  0.00    +0.000 C 
ATOM      5  H   UNL     1       2.817   9.113   0.460  0.00  0.00    +0.000 HD
ATOM      6  H   UNL     1       4.044   7.936   0.919  0.00  0.00    +0.000 HD
BRANCH   4   7
ATOM      7  C   UNL     1       3.491   9.287   2.492  0.00  0.00    +0.000 C 
ATOM      8  H   UNL     1       4.161  10.074   2.855  0.00  0.00    +0.000 HD
ATOM      9  H   UNL     1       3.643   8.395   3.108  0.00  0.00    +0.000 HD
ATOM     10  H   UNL     1       2.460   9.626   2.635  0.00  0.00    +0.000 HD
ENDBRANCH   4   7
ENDBRANCH   1   4
BRANCH   1  12
ATOM     11  O   UNL     1       4.513  12.287   0.568  0.00  0.00    +0.000 OA
ATOM     12  C   UNL     1       4.286  11.230  -0.019  0.00  0.00    +0.000 C 
BRANCH  12  13
ATOM     13  C   UNL     1       3.434  11.199  -1.262  0.00  0.00    +0.000 C 
ATOM     14  H   UNL     1       2.378  11.183  -0.981  0.00  0.00    +0.000 HD
ATOM     15  H   UNL     1       3.682  10.315  -1.853  0.00  0.00    +0.000 HD
ATOM     16  H   UNL     1       3.625  12.093  -1.863  0.00  0.00    +0.000 HD
ENDBRANCH  12  13
ENDBRANCH   1  12
TORSDOF 4
ENDMDL
MODEL 6
REMARK VINA RESULT:    -3.262     12.003     13.222
REMARK INTER + INTRA:          -3.873
REMARK INTER:                  -3.811
REMARK INTRA:                  -0.062
REMARK UNBOUND:                -0.040
REMARK  Name = 7895
REMARK  4 active torsions:
REMARK  status: ('A' for Active; 'I' for Inactive)
REMARK    1  A    between atoms: C_2  and  C_3
REMARK    2  A    between atoms: C_2  and  C_4
REMARK    3  A    between atoms: C_3  and  C_5
REMARK    4  A    between atoms: C_5  and  C_6
REMARK                            x       y       z     vdW  Elec       q    Type
REMARK                         _______ _______ _______ _____ _____    ______ ____
ROOT
ATOM      1  C   UNL     1      -2.523   8.371 -11.112  0.00  0.00    +0.000 C 
ATOM      2  H   UNL     1      -1.738   8.210 -11.859  0.00  0.00    +0.000 HD
ATOM      3  H   UNL     1      -3.402   8.792 -11.613  0.00  0.00    +0.000 HD
ENDROOT
BRANCH   1   4
ATOM      4  C   UNL     1      -2.888   7.047 -10.447  0.00  0.00    +0.000 C 
ATOM      5  H   UNL     1      -2.277   6.238 -10.866  0.00  0.00    +0.000 HD
ATOM      6  H   UNL     1      -2.664   7.092  -9.375  0.00  0.00    +0.000 HD
BRANCH   4   7
ATOM      7  C   UNL     1      -4.360   6.715 -10.637  0.00  0.00    +0.000 C 
ATOM      8  H   UNL     1      -4.492   5.947 -11.406  0.00  0.00    +0.000 HD
ATOM      9  H   UNL     1      -4.927   7.603 -10.936  0.00  0.00    +0.000 HD
ATOM     10  H   UNL     1      -4.787   6.339  -9.703  0.00  0.00    +0.000 HD
ENDBRANCH   4   7
ENDBRANCH   1   4
BRANCH   1  12
ATOM     11  O   UNL     1      -0.996  10.063 -10.302  0.00  0.00    +0.000 OA
ATOM     12  C   UNL     1      -2.017   9.402 -10.117  0.00  0.00    +0.000 C 
BRANCH  12  13
ATOM     13  C   UNL     1      -2.842   9.580  -8.869  0.00  0.00    +0.000 C 
ATOM     14  H   UNL     1      -2.647  10.565  -8.439  0.00  0.00    +0.000 HD
ATOM     15  H   UNL     1      -2.590   8.797  -8.150  0.00  0.00    +0.000 HD
ATOM     16  H   UNL     1      -3.905   9.506  -9.115  0.00  0.00    +0.000 HD
ENDBRANCH  12  13
ENDBRANCH   1  12
TORSDOF 4
ENDMDL
MODEL 7
REMARK VINA RESULT:    -3.191      2.169      2.575
REMARK INTER + INTRA:          -3.790
REMARK INTER:                  -3.724
REMARK INTRA:                  -0.066
REMARK UNBOUND:                -0.040
REMARK  Name = 7895
REMARK  4 active torsions:
REMARK  status: ('A' for Active; 'I' for Inactive)
REMARK    1  A    between atoms: C_2  and  C_3
REMARK    2  A    between atoms: C_2  and  C_4
REMARK    3  A    between atoms: C_3  and  C_5
REMARK    4  A    between atoms: C_5  and  C_6
REMARK                            x       y       z     vdW  Elec       q    Type
REMARK                         _______ _______ _______ _____ _____    ______ ____
ROOT
ATOM      1  C   UNL     1       5.212  10.132   0.636  0.00  0.00    +0.000 C 
ATOM      2  H   UNL     1       6.000  10.471   1.318  0.00  0.00    +0.000 HD
ATOM      3  H   UNL     1       5.245  10.748  -0.269  0.00  0.00    +0.000 HD
ENDROOT
BRANCH   1   4
ATOM      4  C   UNL     1       5.433   8.666   0.275  0.00  0.00    +0.000 C 
ATOM      5  H   UNL     1       4.558   8.073   0.567  0.00  0.00    +0.000 HD
ATOM      6  H   UNL     1       5.540   8.560  -0.812  0.00  0.00    +0.000 HD
BRANCH   4   7
ATOM      7  C   UNL     1       6.671   8.104   0.955  0.00  0.00    +0.000 C 
ATOM      8  H   UNL     1       7.583   8.505   0.502  0.00  0.00    +0.000 HD
ATOM      9  H   UNL     1       6.699   7.012   0.878  0.00  0.00    +0.000 HD
ATOM     10  H   UNL     1       6.673   8.369   2.017  0.00  0.00    +0.000 HD
ENDBRANCH   4   7
ENDBRANCH   1   4
BRANCH   1  12
ATOM     11  O   UNL     1       3.258  11.431   1.219  0.00  0.00    +0.000 OA
ATOM     12  C   UNL     1       3.874  10.370   1.313  0.00  0.00    +0.000 C 
BRANCH  12  13
ATOM     13  C   UNL     1       3.325   9.222   2.121  0.00  0.00    +0.000 C 
ATOM     14  H   UNL     1       3.870   8.307   1.874  0.00  0.00    +0.000 HD
ATOM     15  H   UNL     1       2.261   9.100   1.906  0.00  0.00    +0.000 HD
ATOM     16  H   UNL     1       3.450   9.430   3.188  0.00  0.00    +0.000 HD
ENDBRANCH  12  13
ENDBRANCH   1  12
TORSDOF 4
ENDMDL
MODEL 8
REMARK VINA RESULT:    -3.179     15.015     15.748
REMARK INTER + INTRA:          -3.776
REMARK INTER:                  -3.673
REMARK INTRA:                  -0.103
REMARK UNBOUND:                -0.040
REMARK  Name = 7895
REMARK  4 active torsions:
REMARK  status: ('A' for Active; 'I' for Inactive)
REMARK    1  A    between atoms: C_2  and  C_3
REMARK    2  A    between atoms: C_2  and  C_4
REMARK    3  A    between atoms: C_3  and  C_5
REMARK    4  A    between atoms: C_5  and  C_6
REMARK                            x       y       z     vdW  Elec       q    Type
REMARK                         _______ _______ _______ _____ _____    ______ ____
ROOT
ATOM      1  C   UNL     1      -8.130   5.827  -4.570  0.00  0.00    +0.000 C 
ATOM      2  H   UNL     1      -8.900   6.147  -3.858  0.00  0.00    +0.000 HD
ATOM      3  H   UNL     1      -7.147   6.087  -4.161  0.00  0.00    +0.000 HD
ENDROOT
BRANCH   1   4
ATOM      4  C   UNL     1      -8.219   4.320  -4.789  0.00  0.00    +0.000 C 
ATOM      5  H   UNL     1      -7.601   4.030  -5.648  0.00  0.00    +0.000 HD
ATOM      6  H   UNL     1      -7.817   3.791  -3.916  0.00  0.00    +0.000 HD
BRANCH   4   7
ATOM      7  C   UNL     1      -9.652   3.874  -5.027  0.00  0.00    +0.000 C 
ATOM      8  H   UNL     1     -10.114   3.526  -4.098  0.00  0.00    +0.000 HD
ATOM      9  H   UNL     1      -9.694   3.060  -5.759  0.00  0.00    +0.000 HD
ATOM     10  H   UNL     1     -10.249   4.706  -5.413  0.00  0.00    +0.000 HD
ENDBRANCH   4   7
ENDBRANCH   1   4
BRANCH   1  12
ATOM     11  O   UNL     1      -7.590   6.485  -6.833  0.00  0.00    +0.000 OA
ATOM     12  C   UNL     1      -8.323   6.615  -5.854  0.00  0.00    +0.000 C 
BRANCH  12  13
ATOM     13  C   UNL     1      -9.479   7.582  -5.871  0.00  0.00    +0.000 C 
ATOM     14  H   UNL     1      -9.155   8.545  -5.466  0.00  0.00    +0.000 HD
ATOM     15  H   UNL     1     -10.302   7.179  -5.277  0.00  0.00    +0.000 HD
ATOM     16  H   UNL     1      -9.822   7.728  -6.899  0.00  0.00    +0.000 HD
ENDBRANCH  12  13
ENDBRANCH   1  12
TORSDOF 4
ENDMDL
MODEL 9
REMARK VINA RESULT:    -3.147     22.279     23.020
REMARK INTER + INTRA:          -3.739
REMARK INTER:                  -3.698
REMARK INTRA:                  -0.041
REMARK UNBOUND:                -0.040
REMARK  Name = 7895
REMARK  4 active torsions:
REMARK  status: ('A' for Active; 'I' for Inactive)
REMARK    1  A    between atoms: C_2  and  C_3
REMARK    2  A    between atoms: C_2  and  C_4
REMARK    3  A    between atoms: C_3  and  C_5
REMARK    4  A    between atoms: C_5  and  C_6
REMARK                            x       y       z     vdW  Elec       q    Type
REMARK                         _______ _______ _______ _____ _____    ______ ____
ROOT
ATOM      1  C   UNL     1     -12.902  -1.738  -2.739  0.00  0.00    +0.000 C 
ATOM      2  H   UNL     1     -11.819  -1.615  -2.626  0.00  0.00    +0.000 HD
ATOM      3  H   UNL     1     -13.402  -0.891  -2.257  0.00  0.00    +0.000 HD
ENDROOT
BRANCH   1   4
ATOM      4  C   UNL     1     -13.268  -1.782  -4.220  0.00  0.00    +0.000 C 
ATOM      5  H   UNL     1     -12.704  -2.578  -4.720  0.00  0.00    +0.000 HD
ATOM      6  H   UNL     1     -14.331  -2.026  -4.335  0.00  0.00    +0.000 HD
BRANCH   4   7
ATOM      7  C   UNL     1     -12.983  -0.456  -4.905  0.00  0.00    +0.000 C 
ATOM      8  H   UNL     1     -12.095   0.022  -4.478  0.00  0.00    +0.000 HD
ATOM      9  H   UNL     1     -13.829   0.231  -4.798  0.00  0.00    +0.000 HD
ATOM     10  H   UNL     1     -12.805  -0.611  -5.973  0.00  0.00    +0.000 HD
ENDBRANCH   4   7
ENDBRANCH   1   4
BRANCH   1  12
ATOM     11  O   UNL     1     -13.865  -2.983  -0.903  0.00  0.00    +0.000 OA
ATOM     12  C   UNL     1     -13.309  -3.001  -2.000  0.00  0.00    +0.000 C 
BRANCH  12  13
ATOM     13  C   UNL     1     -12.992  -4.304  -2.688  0.00  0.00    +0.000 C 
ATOM     14  H   UNL     1     -12.477  -4.103  -3.632  0.00  0.00    +0.000 HD
ATOM     15  H   UNL     1     -13.918  -4.854  -2.872  0.00  0.00    +0.000 HD
ATOM     16  H   UNL     1     -12.340  -4.908  -2.051  0.00  0.00    +0.000 HD
ENDBRANCH  12  13
ENDBRANCH   1  12
TORSDOF 4
ENDMDL
MODEL 10
REMARK VINA RESULT:    -3.063     29.341     30.495
REMARK INTER + INTRA:          -3.640
REMARK INTER:                  -3.601
REMARK INTRA:                  -0.040
REMARK UNBOUND:                -0.040
REMARK  Name = 7895
REMARK  4 active torsions:
REMARK  status: ('A' for Active; 'I' for Inactive)
REMARK    1  A    between atoms: C_2  and  C_3
REMARK    2  A    between atoms: C_2  and  C_4
REMARK    3  A    between atoms: C_3  and  C_5
REMARK    4  A    between atoms: C_5  and  C_6
REMARK                            x       y       z     vdW  Elec       q    Type
REMARK                         _______ _______ _______ _____ _____    ______ ____
ROOT
ATOM      1  C   UNL     1     -21.209  -0.504   8.043  0.00  0.00    +0.000 C 
ATOM      2  H   UNL     1     -20.560  -0.246   8.888  0.00  0.00    +0.000 HD
ATOM      3  H   UNL     1     -21.674   0.414   7.668  0.00  0.00    +0.000 HD
ENDROOT
BRANCH   1   4
ATOM      4  C   UNL     1     -20.387  -1.160   6.937  0.00  0.00    +0.000 C 
ATOM      5  H   UNL     1     -19.348  -1.281   7.266  0.00  0.00    +0.000 HD
ATOM      6  H   UNL     1     -20.774  -2.165   6.730  0.00  0.00    +0.000 HD
BRANCH   4   7
ATOM      7  C   UNL     1     -20.419  -0.339   5.658  0.00  0.00    +0.000 C 
ATOM      8  H   UNL     1     -19.603   0.391   5.642  0.00  0.00    +0.000 HD
ATOM      9  H   UNL     1     -21.367   0.201   5.561  0.00  0.00    +0.000 HD
ATOM     10  H   UNL     1     -20.309  -0.991   4.787  0.00  0.00    +0.000 HD
ENDBRANCH   4   7
ENDBRANCH   1   4
BRANCH   1  12
ATOM     11  O   UNL     1     -22.197  -2.630   8.637  0.00  0.00    +0.000 OA
ATOM     12  C   UNL     1     -22.314  -1.407   8.562  0.00  0.00    +0.000 C 
BRANCH  12  13
ATOM     13  C   UNL     1     -23.586  -0.722   8.989  0.00  0.00    +0.000 C 
ATOM     14  H   UNL     1     -23.379   0.329   9.208  0.00  0.00    +0.000 HD
ATOM     15  H   UNL     1     -23.991  -1.220   9.873  0.00  0.00    +0.000 HD
ATOM     16  H   UNL     1     -24.323  -0.776   8.183  0.00  0.00    +0.000 HD
ENDBRANCH  12  13
ENDBRANCH   1  12
TORSDOF 4
ENDMDL
