MODEL 1
REMARK VINA RESULT:    -3.519      0.000      0.000
REMARK INTER + INTRA:          -4.299
REMARK INTER:                  -4.246
REMARK INTRA:                  -0.052
REMARK UNBOUND:                -0.060
REMARK  Name = 22386
REMARK  5 active torsions:
REMARK  status: ('A' for Active; 'I' for Inactive)
REMARK    1  A    between atoms: O_1  and  C_3
REMARK    2  A    between atoms: C_2  and  C_3
REMARK    3  A    between atoms: C_2  and  C_4
REMARK    4  A    between atoms: C_3  and  C_5
REMARK    5  A    between atoms: C_4  and  C_6
REMARK                            x       y       z     vdW  Elec       q    Type
REMARK                         _______ _______ _______ _____ _____    ______ ____
ROOT
ATOM      1  C   UNL     1      -2.833   8.542  -8.945  0.00  0.00    +0.000 C 
ATOM      2  H   UNL     1      -1.824   8.277  -8.604  0.00  0.00    +0.000 HD
ATOM      3  H   UNL     1      -3.441   8.735  -8.052  0.00  0.00    +0.000 HD
ENDROOT
BRANCH   1   4
ATOM      4  C   UNL     1      -2.743   9.815  -9.790  0.00  0.00    +0.000 C 
ATOM      5  H   UNL     1      -2.945  10.691  -9.163  0.00  0.00    +0.000 HD
ATOM      6  H   UNL     1      -3.503   9.799 -10.580  0.00  0.00    +0.000 HD
BRANCH   4   7
ATOM      7  C   UNL     1      -1.371   9.964 -10.428  0.00  0.00    +0.000 C 
ATOM      8  H   UNL     1      -0.721   9.136 -10.128  0.00  0.00    +0.000 HD
ATOM      9  H   UNL     1      -0.894  10.899 -10.120  0.00  0.00    +0.000 HD
ATOM     10  H   UNL     1      -1.445   9.959 -11.521  0.00  0.00    +0.000 HD
ENDBRANCH   4   7
ENDBRANCH   1   4
BRANCH   1  11
ATOM     11  C   UNL     1      -3.434   7.371  -9.728  0.00  0.00    +0.000 C 
ATOM     12  H   UNL     1      -4.045   7.750 -10.556  0.00  0.00    +0.000 HD
BRANCH  11  13
ATOM     13  C   UNL     1      -4.296   6.485  -8.838  0.00  0.00    +0.000 C 
ATOM     14  H   UNL     1      -3.744   6.168  -7.946  0.00  0.00    +0.000 HD
ATOM     15  H   UNL     1      -5.205   7.005  -8.520  0.00  0.00    +0.000 HD
ATOM     16  H   UNL     1      -4.583   5.572  -9.371  0.00  0.00    +0.000 HD
ENDBRANCH  11  13
BRANCH  11  17
ATOM     17  O   UNL     1      -2.395   6.576 -10.295  0.00  0.00    +0.000 OA
ATOM     18  H   UNL     1      -2.801   5.969 -10.938  0.00  0.00    +0.000 HD
ENDBRANCH  11  17
ENDBRANCH   1  11
TORSDOF 5
ENDMDL
MODEL 2
REMARK VINA RESULT:    -3.514      1.571      2.284
REMARK INTER + INTRA:          -4.293
REMARK INTER:                  -4.185
REMARK INTRA:                  -0.107
REMARK UNBOUND:                -0.060
REMARK  Name = 22386
REMARK  5 active torsions:
REMARK  status: ('A' for Active; 'I' for Inactive)
REMARK    1  A    between atoms: O_1  and  C_3
REMARK    2  A    between atoms: C_2  and  C_3
REMARK    3  A    between atoms: C_2  and  C_4
REMARK    4  A    between atoms: C_3  and  C_5
REMARK    5  A    between atoms: C_4  and  C_6
REMARK                            x       y       z     vdW  Elec       q    Type
REMARK                         _______ _______ _______ _____ _____    ______ ____
ROOT
ATOM      1  C   UNL     1      -3.020   6.752  -9.872  0.00  0.00    +0.000 C 
ATOM      2  H   UNL     1      -2.387   5.959  -9.455  0.00  0.00    +0.000 HD
ATOM      3  H   UNL     1      -4.017   6.322 -10.038  0.00  0.00    +0.000 HD
ENDROOT
BRANCH   1   4
ATOM      4  C   UNL     1      -3.115   7.887  -8.851  0.00  0.00    +0.000 C 
ATOM      5  H   UNL     1      -2.585   7.607  -7.933  0.00  0.00    +0.000 HD
ATOM      6  H   UNL     1      -4.163   8.066  -8.579  0.00  0.00    +0.000 HD
BRANCH   4   7
ATOM      7  C   UNL     1      -2.521   9.177  -9.395  0.00  0.00    +0.000 C 
ATOM      8  H   UNL     1      -3.204  10.013  -9.220  0.00  0.00    +0.000 HD
ATOM      9  H   UNL     1      -2.345   9.103 -10.473  0.00  0.00    +0.000 HD
ATOM     10  H   UNL     1      -1.569   9.406  -8.906  0.00  0.00    +0.000 HD
ENDBRANCH   4   7
ENDBRANCH   1   4
BRANCH   1  11
ATOM     11  C   UNL     1      -2.439   7.225 -11.209  0.00  0.00    +0.000 C 
ATOM     12  H   UNL     1      -2.225   8.298 -11.163  0.00  0.00    +0.000 HD
BRANCH  11  13
ATOM     13  C   UNL     1      -3.397   6.957 -12.362  0.00  0.00    +0.000 C 
ATOM     14  H   UNL     1      -4.223   7.677 -12.362  0.00  0.00    +0.000 HD
ATOM     15  H   UNL     1      -2.883   7.012 -13.327  0.00  0.00    +0.000 HD
ATOM     16  H   UNL     1      -3.847   5.963 -12.261  0.00  0.00    +0.000 HD
ENDBRANCH  11  13
BRANCH  11  17
ATOM     17  O   UNL     1      -1.208   6.555 -11.471  0.00  0.00    +0.000 OA
ATOM     18  H   UNL     1      -1.090   5.871 -10.791  0.00  0.00    +0.000 HD
ENDBRANCH  11  17
ENDBRANCH   1  11
TORSDOF 5
ENDMDL
MODEL 3
REMARK VINA RESULT:    -3.490     28.307     29.128
REMARK INTER + INTRA:          -4.264
REMARK INTER:                  -4.190
REMARK INTRA:                  -0.074
REMARK UNBOUND:                -0.060
REMARK  Name = 22386
REMARK  5 active torsions:
REMARK  status: ('A' for Active; 'I' for Inactive)
REMARK    1  A    between atoms: O_1  and  C_3
REMARK    2  A    between atoms: C_2  and  C_3
REMARK    3  A    between atoms: C_2  and  C_4
REMARK    4  A    between atoms: C_3  and  C_5
REMARK    5  A    between atoms: C_4  and  C_6
REMARK                            x       y       z     vdW  Elec       q    Type
REMARK                         _______ _______ _______ _____ _____    ______ ____
ROOT
ATOM      1  C   UNL     1      -9.907   8.101  18.690  0.00  0.00    +0.000 C 
ATOM      2  H   UNL     1      -9.460   7.101  18.757  0.00  0.00    +0.000 HD
ATOM      3  H   UNL     1     -10.847   8.003  18.131  0.00  0.00    +0.000 HD
ENDROOT
BRANCH   1   4
ATOM      4  C   UNL     1     -10.204   8.598  20.106  0.00  0.00    +0.000 C 
ATOM      5  H   UNL     1      -9.288   8.994  20.560  0.00  0.00    +0.000 HD
ATOM      6  H   UNL     1     -10.545   7.767  20.736  0.00  0.00    +0.000 HD
BRANCH   4   7
ATOM      7  C   UNL     1     -11.269   9.683  20.103  0.00  0.00    +0.000 C 
ATOM      8  H   UNL     1     -12.212   9.288  19.713  0.00  0.00    +0.000 HD
ATOM      9  H   UNL     1     -10.968  10.527  19.474  0.00  0.00    +0.000 HD
ATOM     10  H   UNL     1     -11.450  10.057  21.117  0.00  0.00    +0.000 HD
ENDBRANCH   4   7
ENDBRANCH   1   4
BRANCH   1  11
ATOM     11  C   UNL     1      -8.959   9.038  17.936  0.00  0.00    +0.000 C 
ATOM     12  H   UNL     1      -8.649   9.860  18.590  0.00  0.00    +0.000 HD
BRANCH  11  13
ATOM     13  C   UNL     1      -9.616   9.615  16.689  0.00  0.00    +0.000 C 
ATOM     14  H   UNL     1     -10.411  10.322  16.954  0.00  0.00    +0.000 HD
ATOM     15  H   UNL     1      -8.886  10.130  16.056  0.00  0.00    +0.000 HD
ATOM     16  H   UNL     1     -10.088   8.819  16.103  0.00  0.00    +0.000 HD
ENDBRANCH  11  13
BRANCH  11  17
ATOM     17  O   UNL     1      -7.781   8.335  17.548  0.00  0.00    +0.000 OA
ATOM     18  H   UNL     1      -7.674   7.578  18.149  0.00  0.00    +0.000 HD
ENDBRANCH  11  17
ENDBRANCH   1  11
TORSDOF 5
ENDMDL
MODEL 4
REMARK VINA RESULT:    -3.423      7.742      8.165
REMARK INTER + INTRA:          -4.183
REMARK INTER:                  -4.147
REMARK INTRA:                  -0.036
REMARK UNBOUND:                -0.060
REMARK  Name = 22386
REMARK  5 active torsions:
REMARK  status: ('A' for Active; 'I' for Inactive)
REMARK    1  A    between atoms: O_1  and  C_3
REMARK    2  A    between atoms: C_2  and  C_3
REMARK    3  A    between atoms: C_2  and  C_4
REMARK    4  A    between atoms: C_3  and  C_5
REMARK    5  A    between atoms: C_4  and  C_6
REMARK                            x       y       z     vdW  Elec       q    Type
REMARK                         _______ _______ _______ _____ _____    ______ ____
ROOT
ATOM      1  C   UNL     1      -9.778   6.169  -5.374  0.00  0.00    +0.000 C 
ATOM      2  H   UNL     1     -10.246   6.319  -4.393  0.00  0.00    +0.000 HD
ATOM      3  H   UNL     1     -10.416   5.477  -5.939  0.00  0.00    +0.000 HD
ENDROOT
BRANCH   1   4
ATOM      4  C   UNL     1      -9.717   7.516  -6.097  0.00  0.00    +0.000 C 
ATOM      5  H   UNL     1      -9.993   7.386  -7.149  0.00  0.00    +0.000 HD
ATOM      6  H   UNL     1      -8.694   7.911  -6.076  0.00  0.00    +0.000 HD
BRANCH   4   7
ATOM      7  C   UNL     1     -10.650   8.533  -5.459  0.00  0.00    +0.000 C 
ATOM      8  H   UNL     1     -10.299   8.793  -4.455  0.00  0.00    +0.000 HD
ATOM      9  H   UNL     1     -11.665   8.133  -5.370  0.00  0.00    +0.000 HD
ATOM     10  H   UNL     1     -10.693   9.452  -6.052  0.00  0.00    +0.000 HD
ENDBRANCH   4   7
ENDBRANCH   1   4
BRANCH   1  11
ATOM     11  C   UNL     1      -8.389   5.548  -5.190  0.00  0.00    +0.000 C 
ATOM     12  H   UNL     1      -7.837   5.584  -6.136  0.00  0.00    +0.000 HD
BRANCH  11  13
ATOM     13  C   UNL     1      -8.479   4.102  -4.722  0.00  0.00    +0.000 C 
ATOM     14  H   UNL     1      -8.533   4.046  -3.629  0.00  0.00    +0.000 HD
ATOM     15  H   UNL     1      -9.357   3.601  -5.142  0.00  0.00    +0.000 HD
ATOM     16  H   UNL     1      -7.583   3.548  -5.020  0.00  0.00    +0.000 HD
ENDBRANCH  11  13
BRANCH  11  17
ATOM     17  O   UNL     1      -7.643   6.294  -4.232  0.00  0.00    +0.000 OA
ATOM     18  H   UNL     1      -6.700   6.206  -4.454  0.00  0.00    +0.000 HD
ENDBRANCH  11  17
ENDBRANCH   1  11
TORSDOF 5
ENDMDL
MODEL 5
REMARK VINA RESULT:    -3.399      6.520      8.331
REMARK INTER + INTRA:          -4.153
REMARK INTER:                  -4.062
REMARK INTRA:                  -0.092
REMARK UNBOUND:                -0.060
REMARK  Name = 22386
REMARK  5 active torsions:
REMARK  status: ('A' for Active; 'I' for Inactive)
REMARK    1  A    between atoms: O_1  and  C_3
REMARK    2  A    between atoms: C_2  and  C_3
REMARK    3  A    between atoms: C_2  and  C_4
REMARK    4  A    between atoms: C_3  and  C_5
REMARK    5  A    between atoms: C_4  and  C_6
REMARK                            x       y       z     vdW  Elec       q    Type
REMARK                         _______ _______ _______ _____ _____    ______ ____
ROOT
ATOM      1  C   UNL     1      -9.695   5.613  -5.311  0.00  0.00    +0.000 C 
ATOM      2  H   UNL     1     -10.588   5.927  -5.866  0.00  0.00    +0.000 HD
ATOM      3  H   UNL     1      -9.969   5.563  -4.250  0.00  0.00    +0.000 HD
ENDROOT
BRANCH   1   4
ATOM      4  C   UNL     1      -9.280   4.224  -5.800  0.00  0.00    +0.000 C 
ATOM      5  H   UNL     1      -8.435   4.310  -6.492  0.00  0.00    +0.000 HD
ATOM      6  H   UNL     1     -10.104   3.754  -6.351  0.00  0.00    +0.000 HD
BRANCH   4   7
ATOM      7  C   UNL     1      -8.885   3.322  -4.641  0.00  0.00    +0.000 C 
ATOM      8  H   UNL     1      -8.463   3.916  -3.824  0.00  0.00    +0.000 HD
ATOM      9  H   UNL     1      -8.134   2.589  -4.952  0.00  0.00    +0.000 HD
ATOM     10  H   UNL     1      -9.754   2.779  -4.253  0.00  0.00    +0.000 HD
ENDBRANCH   4   7
ENDBRANCH   1   4
BRANCH   1  11
ATOM     11  C   UNL     1      -8.582   6.648  -5.502  0.00  0.00    +0.000 C 
ATOM     12  H   UNL     1      -9.007   7.659  -5.498  0.00  0.00    +0.000 HD
BRANCH  11  13
ATOM     13  C   UNL     1      -7.831   6.429  -6.808  0.00  0.00    +0.000 C 
ATOM     14  H   UNL     1      -8.263   7.031  -7.616  0.00  0.00    +0.000 HD
ATOM     15  H   UNL     1      -6.772   6.688  -6.707  0.00  0.00    +0.000 HD
ATOM     16  H   UNL     1      -7.907   5.382  -7.121  0.00  0.00    +0.000 HD
ENDBRANCH  11  13
BRANCH  11  17
ATOM     17  O   UNL     1      -7.653   6.573  -4.423  0.00  0.00    +0.000 OA
ATOM     18  H   UNL     1      -7.190   7.426  -4.368  0.00  0.00    +0.000 HD
ENDBRANCH  11  17
ENDBRANCH   1  11
TORSDOF 5
ENDMDL
MODEL 6
REMARK VINA RESULT:    -3.396     12.191     12.681
REMARK INTER + INTRA:          -4.151
REMARK INTER:                  -4.083
REMARK INTRA:                  -0.068
REMARK UNBOUND:                -0.060
REMARK  Name = 22386
REMARK  5 active torsions:
REMARK  status: ('A' for Active; 'I' for Inactive)
REMARK    1  A    between atoms: O_1  and  C_3
REMARK    2  A    between atoms: C_2  and  C_3
REMARK    3  A    between atoms: C_2  and  C_4
REMARK    4  A    between atoms: C_3  and  C_5
REMARK    5  A    between atoms: C_4  and  C_6
REMARK                            x       y       z     vdW  Elec       q    Type
REMARK                         _______ _______ _______ _____ _____    ______ ____
ROOT
ATOM      1  C   UNL     1       5.086  10.312   0.277  0.00  0.00    +0.000 C 
ATOM      2  H   UNL     1       5.325   9.449  -0.357  0.00  0.00    +0.000 HD
ATOM      3  H   UNL     1       5.282  10.019   1.316  0.00  0.00    +0.000 HD
ENDROOT
BRANCH   1   4
ATOM      4  C   UNL     1       6.007  11.471  -0.111  0.00  0.00    +0.000 C 
ATOM      5  H   UNL     1       6.531  11.842   0.776  0.00  0.00    +0.000 HD
ATOM      6  H   UNL     1       5.418  12.304  -0.513  0.00  0.00    +0.000 HD
BRANCH   4   7
ATOM      7  C   UNL     1       7.031  11.044  -1.152  0.00  0.00    +0.000 C 
ATOM      8  H   UNL     1       7.743  10.337  -0.715  0.00  0.00    +0.000 HD
ATOM      9  H   UNL     1       7.593  11.905  -1.526  0.00  0.00    +0.000 HD
ATOM     10  H   UNL     1       6.544  10.555  -2.002  0.00  0.00    +0.000 HD
ENDBRANCH   4   7
ENDBRANCH   1   4
BRANCH   1  11
ATOM     11  C   UNL     1       3.606  10.672   0.118  0.00  0.00    +0.000 C 
ATOM     12  H   UNL     1       2.988   9.777   0.250  0.00  0.00    +0.000 HD
BRANCH  11  13
ATOM     13  C   UNL     1       3.320  11.277  -1.251  0.00  0.00    +0.000 C 
ATOM     14  H   UNL     1       4.177  11.858  -1.610  0.00  0.00    +0.000 HD
ATOM     15  H   UNL     1       3.089  10.502  -1.987  0.00  0.00    +0.000 HD
ATOM     16  H   UNL     1       2.473  11.969  -1.192  0.00  0.00    +0.000 HD
ENDBRANCH  11  13
BRANCH  11  17
ATOM     17  O   UNL     1       3.220  11.609   1.121  0.00  0.00    +0.000 OA
ATOM     18  H   UNL     1       3.353  11.189   1.988  0.00  0.00    +0.000 HD
ENDBRANCH  11  17
ENDBRANCH   1  11
TORSDOF 5
ENDMDL
MODEL 7
REMARK VINA RESULT:    -3.373      1.635      3.274
REMARK INTER + INTRA:          -4.123
REMARK INTER:                  -4.052
REMARK INTRA:                  -0.071
REMARK UNBOUND:                -0.060
REMARK  Name = 22386
REMARK  5 active torsions:
REMARK  status: ('A' for Active; 'I' for Inactive)
REMARK    1  A    between atoms: O_1  and  C_3
REMARK    2  A    between atoms: C_2  and  C_3
REMARK    3  A    between atoms: C_2  and  C_4
REMARK    4  A    between atoms: C_3  and  C_5
REMARK    5  A    between atoms: C_4  and  C_6
REMARK                            x       y       z     vdW  Elec       q    Type
REMARK                         _______ _______ _______ _____ _____    ______ ____
ROOT
ATOM      1  C   UNL     1      -2.729   8.670  -8.929  0.00  0.00    +0.000 C 
ATOM      2  H   UNL     1      -3.577   8.922  -8.280  0.00  0.00    +0.000 HD
ATOM      3  H   UNL     1      -1.847   8.554  -8.286  0.00  0.00    +0.000 HD
ENDROOT
BRANCH   1   4
ATOM      4  C   UNL     1      -3.030   7.344  -9.630  0.00  0.00    +0.000 C 
ATOM      5  H   UNL     1      -2.114   6.747  -9.704  0.00  0.00    +0.000 HD
ATOM      6  H   UNL     1      -3.382   7.527 -10.652  0.00  0.00    +0.000 HD
BRANCH   4   7
ATOM      7  C   UNL     1      -4.086   6.545  -8.881  0.00  0.00    +0.000 C 
ATOM      8  H   UNL     1      -4.316   7.024  -7.925  0.00  0.00    +0.000 HD
ATOM      9  H   UNL     1      -3.737   5.529  -8.676  0.00  0.00    +0.000 HD
ATOM     10  H   UNL     1      -5.012   6.480  -9.461  0.00  0.00    +0.000 HD
ENDBRANCH   4   7
ENDBRANCH   1   4
BRANCH   1  11
ATOM     11  C   UNL     1      -2.489   9.809  -9.925  0.00  0.00    +0.000 C 
ATOM     12  H   UNL     1      -2.871  10.750  -9.515  0.00  0.00    +0.000 HD
BRANCH  11  13
ATOM     13  C   UNL     1      -3.167   9.536 -11.261  0.00  0.00    +0.000 C 
ATOM     14  H   UNL     1      -3.276  10.459 -11.842  0.00  0.00    +0.000 HD
ATOM     15  H   UNL     1      -2.600   8.813 -11.855  0.00  0.00    +0.000 HD
ATOM     16  H   UNL     1      -4.177   9.144 -11.103  0.00  0.00    +0.000 HD
ENDBRANCH  11  13
BRANCH  11  17
ATOM     17  O   UNL     1      -1.091   9.977 -10.148  0.00  0.00    +0.000 OA
ATOM     18  H   UNL     1      -0.622   9.647  -9.363  0.00  0.00    +0.000 HD
ENDBRANCH  11  17
ENDBRANCH   1  11
TORSDOF 5
ENDMDL
MODEL 8
REMARK VINA RESULT:    -3.349     25.481     25.778
REMARK INTER + INTRA:          -4.093
REMARK INTER:                  -4.061
REMARK INTRA:                  -0.032
REMARK UNBOUND:                -0.060
REMARK  Name = 22386
REMARK  5 active torsions:
REMARK  status: ('A' for Active; 'I' for Inactive)
REMARK    1  A    between atoms: O_1  and  C_3
REMARK    2  A    between atoms: C_2  and  C_3
REMARK    3  A    between atoms: C_2  and  C_4
REMARK    4  A    between atoms: C_3  and  C_5
REMARK    5  A    between atoms: C_4  and  C_6
REMARK                            x       y       z     vdW  Elec       q    Type
REMARK                         _______ _______ _______ _____ _____    ______ ____
ROOT
ATOM      1  C   UNL     1     -20.663  -4.367   4.927  0.00  0.00    +0.000 C 
ATOM      2  H   UNL     1     -21.280  -5.185   5.320  0.00  0.00    +0.000 HD
ATOM      3  H   UNL     1     -21.168  -3.974   4.035  0.00  0.00    +0.000 HD
ENDROOT
BRANCH   1   4
ATOM      4  C   UNL     1     -20.574  -3.270   5.991  0.00  0.00    +0.000 C 
ATOM      5  H   UNL     1     -19.584  -3.288   6.460  0.00  0.00    +0.000 HD
ATOM      6  H   UNL     1     -21.312  -3.449   6.782  0.00  0.00    +0.000 HD
BRANCH   4   7
ATOM      7  C   UNL     1     -20.818  -1.894   5.391  0.00  0.00    +0.000 C 
ATOM      8  H   UNL     1     -19.871  -1.446   5.073  0.00  0.00    +0.000 HD
ATOM      9  H   UNL     1     -21.281  -1.224   6.122  0.00  0.00    +0.000 HD
ATOM     10  H   UNL     1     -21.474  -1.957   4.517  0.00  0.00    +0.000 HD
ENDBRANCH   4   7
ENDBRANCH   1   4
BRANCH   1  11
ATOM     11  C   UNL     1     -19.283  -4.906   4.537  0.00  0.00    +0.000 C 
ATOM     12  H   UNL     1     -18.643  -4.082   4.201  0.00  0.00    +0.000 HD
BRANCH  11  13
ATOM     13  C   UNL     1     -19.381  -5.945   3.428  0.00  0.00    +0.000 C 
ATOM     14  H   UNL     1     -18.606  -6.712   3.539  0.00  0.00    +0.000 HD
ATOM     15  H   UNL     1     -20.360  -6.433   3.425  0.00  0.00    +0.000 HD
ATOM     16  H   UNL     1     -19.220  -5.476   2.451  0.00  0.00    +0.000 HD
ENDBRANCH  11  13
BRANCH  11  17
ATOM     17  O   UNL     1     -18.653  -5.502   5.668  0.00  0.00    +0.000 OA
ATOM     18  H   UNL     1     -17.694  -5.362   5.583  0.00  0.00    +0.000 HD
ENDBRANCH  11  17
ENDBRANCH   1  11
TORSDOF 5
ENDMDL
MODEL 9
REMARK VINA RESULT:    -3.337     12.122     12.827
REMARK INTER + INTRA:          -4.079
REMARK INTER:                  -4.012
REMARK INTRA:                  -0.067
REMARK UNBOUND:                -0.060
REMARK  Name = 22386
REMARK  5 active torsions:
REMARK  status: ('A' for Active; 'I' for Inactive)
REMARK    1  A    between atoms: O_1  and  C_3
REMARK    2  A    between atoms: C_2  and  C_3
REMARK    3  A    between atoms: C_2  and  C_4
REMARK    4  A    between atoms: C_3  and  C_5
REMARK    5  A    between atoms: C_4  and  C_6
REMARK                            x       y       z     vdW  Elec       q    Type
REMARK                         _______ _______ _______ _____ _____    ______ ____
ROOT
ATOM      1  C   UNL     1       4.106  10.898  -0.769  0.00  0.00    +0.000 C 
ATOM      2  H   UNL     1       3.685   9.974  -1.183  0.00  0.00    +0.000 HD
ATOM      3  H   UNL     1       3.744  11.730  -1.386  0.00  0.00    +0.000 HD
ENDROOT
BRANCH   1   4
ATOM      4  C   UNL     1       3.598  11.065   0.665  0.00  0.00    +0.000 C 
ATOM      5  H   UNL     1       2.584  11.480   0.653  0.00  0.00    +0.000 HD
ATOM      6  H   UNL     1       4.232  11.772   1.212  0.00  0.00    +0.000 HD
BRANCH   4   7
ATOM      7  C   UNL     1       3.585   9.738   1.409  0.00  0.00    +0.000 C 
ATOM      8  H   UNL     1       3.106   8.966   0.799  0.00  0.00    +0.000 HD
ATOM      9  H   UNL     1       3.030   9.821   2.349  0.00  0.00    +0.000 HD
ATOM     10  H   UNL     1       4.603   9.408   1.638  0.00  0.00    +0.000 HD
ENDBRANCH   4   7
ENDBRANCH   1   4
BRANCH   1  11
ATOM     11  C   UNL     1       5.635  10.840  -0.836  0.00  0.00    +0.000 C 
ATOM     12  H   UNL     1       5.986   9.854  -0.512  0.00  0.00    +0.000 HD
BRANCH  11  13
ATOM     13  C   UNL     1       6.275  11.909   0.042  0.00  0.00    +0.000 C 
ATOM     14  H   UNL     1       5.646  12.805   0.091  0.00  0.00    +0.000 HD
ATOM     15  H   UNL     1       6.442  11.541   1.059  0.00  0.00    +0.000 HD
ATOM     16  H   UNL     1       7.236  12.222  -0.380  0.00  0.00    +0.000 HD
ENDBRANCH  11  13
BRANCH  11  17
ATOM     17  O   UNL     1       6.074  11.029  -2.179  0.00  0.00    +0.000 OA
ATOM     18  H   UNL     1       6.345  11.958  -2.276  0.00  0.00    +0.000 HD
ENDBRANCH  11  17
ENDBRANCH   1  11
TORSDOF 5
ENDMDL
MODEL 10
REMARK VINA RESULT:    -3.223      2.357      3.026
REMARK INTER + INTRA:          -3.942
REMARK INTER:                  -3.883
REMARK INTRA:                  -0.060
REMARK UNBOUND:                -0.060
REMARK  Name = 22386
REMARK  5 active torsions:
REMARK  status: ('A' for Active; 'I' for Inactive)
REMARK    1  A    between atoms: O_1  and  C_3
REMARK    2  A    between atoms: C_2  and  C_3
REMARK    3  A    between atoms: C_2  and  C_4
REMARK    4  A    between atoms: C_3  and  C_5
REMARK    5  A    between atoms: C_4  and  C_6
REMARK                            x       y       z     vdW  Elec       q    Type
REMARK                         _______ _______ _______ _____ _____    ______ ____
ROOT
ATOM      1  C   UNL     1      -1.288   9.692 -10.831  0.00  0.00    +0.000 C 
ATOM      2  H   UNL     1      -0.966  10.681 -11.180  0.00  0.00    +0.000 HD
ATOM      3  H   UNL     1      -0.639   9.413  -9.992  0.00  0.00    +0.000 HD
ENDROOT
BRANCH   1   4
ATOM      4  C   UNL     1      -2.736   9.794 -10.347  0.00  0.00    +0.000 C 
ATOM      5  H   UNL     1      -3.366   9.095 -10.909  0.00  0.00    +0.000 HD
ATOM      6  H   UNL     1      -3.127  10.802 -10.530  0.00  0.00    +0.000 HD
BRANCH   4   7
ATOM      7  C   UNL     1      -2.849   9.483  -8.863  0.00  0.00    +0.000 C 
ATOM      8  H   UNL     1      -3.520  10.198  -8.375  0.00  0.00    +0.000 HD
ATOM      9  H   UNL     1      -1.873   9.545  -8.373  0.00  0.00    +0.000 HD
ATOM     10  H   UNL     1      -3.251   8.477  -8.703  0.00  0.00    +0.000 HD
ENDBRANCH   4   7
ENDBRANCH   1   4
BRANCH   1  11
ATOM     11  C   UNL     1      -1.128   8.671 -11.962  0.00  0.00    +0.000 C 
ATOM     12  H   UNL     1      -1.705   8.991 -12.838  0.00  0.00    +0.000 HD
BRANCH  11  13
ATOM     13  C   UNL     1      -1.596   7.286 -11.537  0.00  0.00    +0.000 C 
ATOM     14  H   UNL     1      -1.075   6.505 -12.102  0.00  0.00    +0.000 HD
ATOM     15  H   UNL     1      -1.425   7.119 -10.469  0.00  0.00    +0.000 HD
ATOM     16  H   UNL     1      -2.664   7.164 -11.744  0.00  0.00    +0.000 HD
ENDBRANCH  11  13
BRANCH  11  17
ATOM     17  O   UNL     1       0.239   8.591 -12.359  0.00  0.00    +0.000 OA
ATOM     18  H   UNL     1       0.540   9.490 -12.576  0.00  0.00    +0.000 HD
ENDBRANCH  11  17
ENDBRANCH   1  11
TORSDOF 5
ENDMDL
