MODEL 1
REMARK VINA RESULT:    -3.603      0.000      0.000
REMARK INTER + INTRA:          -4.130
REMARK INTER:                  -4.130
REMARK INTRA:                   0.000
REMARK UNBOUND:                 0.000
REMARK  Name = 179
REMARK  4 active torsions:
REMARK  status: ('A' for Active; 'I' for Inactive)
REMARK    1  A    between atoms: O_1  and  C_3
REMARK    2  A    between atoms: C_3  and  C_4
REMARK    3  A    between atoms: C_3  and  C_5
REMARK    4  A    between atoms: C_4  and  C_6
REMARK                            x       y       z     vdW  Elec       q    Type
REMARK                         _______ _______ _______ _____ _____    ______ ____
ROOT
ATOM      1  C   UNL     1       5.164  11.473   0.208  0.00  0.00    +0.000 C 
ATOM      2  H   UNL     1       5.355  10.825   1.071  0.00  0.00    +0.000 HD
ENDROOT
BRANCH   1   3
ATOM      3  C   UNL     1       5.978  11.022  -0.992  0.00  0.00    +0.000 C 
ATOM      4  H   UNL     1       6.877  10.483  -0.673  0.00  0.00    +0.000 HD
ATOM      5  H   UNL     1       6.289  11.868  -1.611  0.00  0.00    +0.000 HD
ATOM      6  H   UNL     1       5.398  10.332  -1.613  0.00  0.00    +0.000 HD
ENDBRANCH   1   3
BRANCH   1   7
ATOM      7  O   UNL     1       5.567  12.791   0.546  0.00  0.00    +0.000 OA
ATOM      8  H   UNL     1       5.570  12.855   1.516  0.00  0.00    +0.000 HD
ENDBRANCH   1   7
BRANCH   1  10
ATOM      9  O   UNL     1       2.828  11.683   0.772  0.00  0.00    +0.000 OA
ATOM     10  C   UNL     1       3.673  11.469  -0.096  0.00  0.00    +0.000 C 
BRANCH  10  11
ATOM     11  C   UNL     1       3.262  11.194  -1.521  0.00  0.00    +0.000 C 
ATOM     12  H   UNL     1       2.212  10.899  -1.553  0.00  0.00    +0.000 HD
ATOM     13  H   UNL     1       3.875  10.385  -1.928  0.00  0.00    +0.000 HD
ATOM     14  H   UNL     1       3.425  12.088  -2.130  0.00  0.00    +0.000 HD
ENDBRANCH  10  11
ENDBRANCH   1  10
TORSDOF 4
ENDMDL
MODEL 2
REMARK VINA RESULT:    -3.446     29.590     30.009
REMARK INTER + INTRA:          -3.950
REMARK INTER:                  -3.950
REMARK INTRA:                   0.000
REMARK UNBOUND:                 0.000
REMARK  Name = 179
REMARK  4 active torsions:
REMARK  status: ('A' for Active; 'I' for Inactive)
REMARK    1  A    between atoms: O_1  and  C_3
REMARK    2  A    between atoms: C_3  and  C_4
REMARK    3  A    between atoms: C_3  and  C_5
REMARK    4  A    between atoms: C_4  and  C_6
REMARK                            x       y       z     vdW  Elec       q    Type
REMARK                         _______ _______ _______ _____ _____    ______ ____
ROOT
ATOM      1  C   UNL     1      -8.502 -11.026  15.448  0.00  0.00    +0.000 C 
ATOM      2  H   UNL     1      -8.928 -11.809  16.084  0.00  0.00    +0.000 HD
ENDROOT
BRANCH   1   3
ATOM      3  C   UNL     1      -7.928 -11.621  14.175  0.00  0.00    +0.000 C 
ATOM      4  H   UNL     1      -7.598 -10.833  13.490  0.00  0.00    +0.000 HD
ATOM      5  H   UNL     1      -8.660 -12.243  13.652  0.00  0.00    +0.000 HD
ATOM      6  H   UNL     1      -7.049 -12.235  14.400  0.00  0.00    +0.000 HD
ENDBRANCH   1   3
BRANCH   1   7
ATOM      7  O   UNL     1      -7.446 -10.401  16.161  0.00  0.00    +0.000 OA
ATOM      8  H   UNL     1      -6.616 -10.629  15.709  0.00  0.00    +0.000 HD
ENDBRANCH   1   7
BRANCH   1  10
ATOM      9  O   UNL     1      -9.404  -9.086  14.332  0.00  0.00    +0.000 OA
ATOM     10  C   UNL     1      -9.578  -9.993  15.145  0.00  0.00    +0.000 C 
BRANCH  10  11
ATOM     11  C   UNL     1     -10.887 -10.126  15.882  0.00  0.00    +0.000 C 
ATOM     12  H   UNL     1     -10.699 -10.326  16.938  0.00  0.00    +0.000 HD
ATOM     13  H   UNL     1     -11.462 -10.955  15.458  0.00  0.00    +0.000 HD
ATOM     14  H   UNL     1     -11.471  -9.209  15.768  0.00  0.00    +0.000 HD
ENDBRANCH  10  11
ENDBRANCH   1  10
TORSDOF 4
ENDMDL
MODEL 3
REMARK VINA RESULT:    -3.441     28.814     29.401
REMARK INTER + INTRA:          -3.943
REMARK INTER:                  -3.943
REMARK INTRA:                   0.000
REMARK UNBOUND:                 0.000
REMARK  Name = 179
REMARK  4 active torsions:
REMARK  status: ('A' for Active; 'I' for Inactive)
REMARK    1  A    between atoms: O_1  and  C_3
REMARK    2  A    between atoms: C_3  and  C_4
REMARK    3  A    between atoms: C_3  and  C_5
REMARK    4  A    between atoms: C_4  and  C_6
REMARK                            x       y       z     vdW  Elec       q    Type
REMARK                         _______ _______ _______ _____ _____    ______ ____
ROOT
ATOM      1  C   UNL     1     -19.372  -5.308   4.570  0.00  0.00    +0.000 C 
ATOM      2  H   UNL     1     -20.022  -6.177   4.421  0.00  0.00    +0.000 HD
ENDROOT
BRANCH   1   3
ATOM      3  C   UNL     1     -18.498  -5.076   3.350  0.00  0.00    +0.000 C 
ATOM      4  H   UNL     1     -17.867  -4.190   3.484  0.00  0.00    +0.000 HD
ATOM      5  H   UNL     1     -19.096  -4.935   2.445  0.00  0.00    +0.000 HD
ATOM      6  H   UNL     1     -17.825  -5.925   3.192  0.00  0.00    +0.000 HD
ENDBRANCH   1   3
BRANCH   1   7
ATOM      7  O   UNL     1     -18.525  -5.571   5.677  0.00  0.00    +0.000 OA
ATOM      8  H   UNL     1     -18.944  -6.272   6.204  0.00  0.00    +0.000 HD
ENDBRANCH   1   7
BRANCH   1  10
ATOM      9  O   UNL     1     -20.464  -3.728   6.032  0.00  0.00    +0.000 OA
ATOM     10  C   UNL     1     -20.233  -4.091   4.879  0.00  0.00    +0.000 C 
BRANCH  10  11
ATOM     11  C   UNL     1     -20.795  -3.331   3.704  0.00  0.00    +0.000 C 
ATOM     12  H   UNL     1     -21.382  -2.481   4.059  0.00  0.00    +0.000 HD
ATOM     13  H   UNL     1     -21.440  -3.991   3.117  0.00  0.00    +0.000 HD
ATOM     14  H   UNL     1     -19.980  -2.987   3.062  0.00  0.00    +0.000 HD
ENDBRANCH  10  11
ENDBRANCH   1  10
TORSDOF 4
ENDMDL
MODEL 4
REMARK VINA RESULT:    -3.389      1.626      2.288
REMARK INTER + INTRA:          -3.884
REMARK INTER:                  -3.884
REMARK INTRA:                   0.000
REMARK UNBOUND:                 0.000
REMARK  Name = 179
REMARK  4 active torsions:
REMARK  status: ('A' for Active; 'I' for Inactive)
REMARK    1  A    between atoms: O_1  and  C_3
REMARK    2  A    between atoms: C_3  and  C_4
REMARK    3  A    between atoms: C_3  and  C_5
REMARK    4  A    between atoms: C_4  and  C_6
REMARK                            x       y       z     vdW  Elec       q    Type
REMARK                         _______ _______ _______ _____ _____    ______ ____
ROOT
ATOM      1  C   UNL     1       3.621   9.891   0.831  0.00  0.00    +0.000 C 
ATOM      2  H   UNL     1       2.842   9.296   0.341  0.00  0.00    +0.000 HD
ENDROOT
BRANCH   1   3
ATOM      3  C   UNL     1       4.916   9.103   0.927  0.00  0.00    +0.000 C 
ATOM      4  H   UNL     1       5.732   9.736   1.294  0.00  0.00    +0.000 HD
ATOM      5  H   UNL     1       5.214   8.693  -0.042  0.00  0.00    +0.000 HD
ATOM      6  H   UNL     1       4.812   8.276   1.636  0.00  0.00    +0.000 HD
ENDBRANCH   1   3
BRANCH   1   7
ATOM      7  O   UNL     1       3.188  10.192   2.148  0.00  0.00    +0.000 OA
ATOM      8  H   UNL     1       2.349  10.676   2.074  0.00  0.00    +0.000 HD
ENDBRANCH   1   7
BRANCH   1  10
ATOM      9  O   UNL     1       4.316  12.187   0.574  0.00  0.00    +0.000 OA
ATOM     10  C   UNL     1       3.814  11.188   0.059  0.00  0.00    +0.000 C 
BRANCH  10  11
ATOM     11  C   UNL     1       3.367  11.205  -1.381  0.00  0.00    +0.000 C 
ATOM     12  H   UNL     1       3.551  10.231  -1.838  0.00  0.00    +0.000 HD
ATOM     13  H   UNL     1       3.927  11.969  -1.928  0.00  0.00    +0.000 HD
ATOM     14  H   UNL     1       2.304  11.455  -1.434  0.00  0.00    +0.000 HD
ENDBRANCH  10  11
ENDBRANCH   1  10
TORSDOF 4
ENDMDL
MODEL 5
REMARK VINA RESULT:    -3.368     14.576     15.565
REMARK INTER + INTRA:          -3.860
REMARK INTER:                  -3.860
REMARK INTRA:                   0.000
REMARK UNBOUND:                 0.000
REMARK  Name = 179
REMARK  4 active torsions:
REMARK  status: ('A' for Active; 'I' for Inactive)
REMARK    1  A    between atoms: O_1  and  C_3
REMARK    2  A    between atoms: C_3  and  C_4
REMARK    3  A    between atoms: C_3  and  C_5
REMARK    4  A    between atoms: C_4  and  C_6
REMARK                            x       y       z     vdW  Elec       q    Type
REMARK                         _______ _______ _______ _____ _____    ______ ____
ROOT
ATOM      1  C   UNL     1      -8.389   6.119  -5.438  0.00  0.00    +0.000 C 
ATOM      2  H   UNL     1      -7.693   5.854  -6.241  0.00  0.00    +0.000 HD
ENDROOT
BRANCH   1   3
ATOM      3  C   UNL     1      -9.194   7.351  -5.813  0.00  0.00    +0.000 C 
ATOM      4  H   UNL     1     -10.026   7.501  -5.116  0.00  0.00    +0.000 HD
ATOM      5  H   UNL     1      -9.605   7.275  -6.823  0.00  0.00    +0.000 HD
ATOM      6  H   UNL     1      -8.570   8.249  -5.759  0.00  0.00    +0.000 HD
ENDBRANCH   1   3
BRANCH   1   7
ATOM      7  O   UNL     1      -7.634   6.421  -4.276  0.00  0.00    +0.000 OA
ATOM      8  H   UNL     1      -6.834   5.868  -4.297  0.00  0.00    +0.000 HD
ENDBRANCH   1   7
BRANCH   1  10
ATOM      9  O   UNL     1     -10.515   4.985  -5.294  0.00  0.00    +0.000 OA
ATOM     10  C   UNL     1      -9.293   4.929  -5.152  0.00  0.00    +0.000 C 
BRANCH  10  11
ATOM     11  C   UNL     1      -8.630   3.657  -4.687  0.00  0.00    +0.000 C 
ATOM     12  H   UNL     1      -9.388   2.927  -4.399  0.00  0.00    +0.000 HD
ATOM     13  H   UNL     1      -7.994   3.872  -3.823  0.00  0.00    +0.000 HD
ATOM     14  H   UNL     1      -8.000   3.256  -5.486  0.00  0.00    +0.000 HD
ENDBRANCH  10  11
ENDBRANCH   1  10
TORSDOF 4
ENDMDL
MODEL 6
REMARK VINA RESULT:    -3.365      1.605      2.186
REMARK INTER + INTRA:          -3.857
REMARK INTER:                  -3.857
REMARK INTRA:                   0.000
REMARK UNBOUND:                 0.000
REMARK  Name = 179
REMARK  4 active torsions:
REMARK  status: ('A' for Active; 'I' for Inactive)
REMARK    1  A    between atoms: O_1  and  C_3
REMARK    2  A    between atoms: C_3  and  C_4
REMARK    3  A    between atoms: C_3  and  C_5
REMARK    4  A    between atoms: C_4  and  C_6
REMARK                            x       y       z     vdW  Elec       q    Type
REMARK                         _______ _______ _______ _____ _____    ______ ____
ROOT
ATOM      1  C   UNL     1       4.550  11.129  -0.009  0.00  0.00    +0.000 C 
ATOM      2  H   UNL     1       5.535  10.799  -0.357  0.00  0.00    +0.000 HD
ENDROOT
BRANCH   1   3
ATOM      3  C   UNL     1       3.559  11.163  -1.159  0.00  0.00    +0.000 C 
ATOM      4  H   UNL     1       2.534  11.275  -0.788  0.00  0.00    +0.000 HD
ATOM      5  H   UNL     1       3.605  10.252  -1.762  0.00  0.00    +0.000 HD
ATOM      6  H   UNL     1       3.756  12.020  -1.812  0.00  0.00    +0.000 HD
ENDBRANCH   1   3
BRANCH   1   7
ATOM      7  O   UNL     1       4.677  12.445   0.504  0.00  0.00    +0.000 OA
ATOM      8  H   UNL     1       3.846  12.913   0.316  0.00  0.00    +0.000 HD
ENDBRANCH   1   7
BRANCH   1  10
ATOM      9  O   UNL     1       3.143  10.492   1.845  0.00  0.00    +0.000 OA
ATOM     10  C   UNL     1       4.081  10.202   1.103  0.00  0.00    +0.000 C 
BRANCH  10  11
ATOM     11  C   UNL     1       4.812   8.893   1.262  0.00  0.00    +0.000 C 
ATOM     12  H   UNL     1       5.146   8.534   0.286  0.00  0.00    +0.000 HD
ATOM     13  H   UNL     1       4.142   8.151   1.706  0.00  0.00    +0.000 HD
ATOM     14  H   UNL     1       5.667   9.026   1.930  0.00  0.00    +0.000 HD
ENDBRANCH  10  11
ENDBRANCH   1  10
TORSDOF 4
ENDMDL
MODEL 7
REMARK VINA RESULT:    -3.262     11.534     12.321
REMARK INTER + INTRA:          -3.739
REMARK INTER:                  -3.739
REMARK INTRA:                   0.000
REMARK UNBOUND:                 0.000
REMARK  Name = 179
REMARK  4 active torsions:
REMARK  status: ('A' for Active; 'I' for Inactive)
REMARK    1  A    between atoms: O_1  and  C_3
REMARK    2  A    between atoms: C_3  and  C_4
REMARK    3  A    between atoms: C_3  and  C_5
REMARK    4  A    between atoms: C_4  and  C_6
REMARK                            x       y       z     vdW  Elec       q    Type
REMARK                         _______ _______ _______ _____ _____    ______ ____
ROOT
ATOM      1  C   UNL     1      -2.419   9.025  -9.169  0.00  0.00    +0.000 C 
ATOM      2  H   UNL     1      -1.413   8.905  -8.753  0.00  0.00    +0.000 HD
ENDROOT
BRANCH   1   3
ATOM      3  C   UNL     1      -2.376   9.841 -10.449  0.00  0.00    +0.000 C 
ATOM      4  H   UNL     1      -2.543  10.904 -10.240  0.00  0.00    +0.000 HD
ATOM      5  H   UNL     1      -3.134   9.511 -11.165  0.00  0.00    +0.000 HD
ATOM      6  H   UNL     1      -1.393   9.761 -10.924  0.00  0.00    +0.000 HD
ENDBRANCH   1   3
BRANCH   1   7
ATOM      7  O   UNL     1      -3.209   9.728  -8.223  0.00  0.00    +0.000 OA
ATOM      8  H   UNL     1      -4.082   9.874  -8.625  0.00  0.00    +0.000 HD
ENDBRANCH   1   7
BRANCH   1  10
ATOM      9  O   UNL     1      -3.820   7.141  -8.613  0.00  0.00    +0.000 OA
ATOM     10  C   UNL     1      -3.027   7.650  -9.404  0.00  0.00    +0.000 C 
BRANCH  10  11
ATOM     11  C   UNL     1      -2.622   6.925 -10.664  0.00  0.00    +0.000 C 
ATOM     12  H   UNL     1      -1.884   6.156 -10.428  0.00  0.00    +0.000 HD
ATOM     13  H   UNL     1      -2.184   7.637 -11.369  0.00  0.00    +0.000 HD
ATOM     14  H   UNL     1      -3.503   6.476 -11.130  0.00  0.00    +0.000 HD
ENDBRANCH  10  11
ENDBRANCH   1  10
TORSDOF 4
ENDMDL
MODEL 8
REMARK VINA RESULT:    -3.250     11.780     12.456
REMARK INTER + INTRA:          -3.725
REMARK INTER:                  -3.725
REMARK INTRA:                   0.000
REMARK UNBOUND:                 0.000
REMARK  Name = 179
REMARK  4 active torsions:
REMARK  status: ('A' for Active; 'I' for Inactive)
REMARK    1  A    between atoms: O_1  and  C_3
REMARK    2  A    between atoms: C_3  and  C_4
REMARK    3  A    between atoms: C_3  and  C_5
REMARK    4  A    between atoms: C_4  and  C_6
REMARK                            x       y       z     vdW  Elec       q    Type
REMARK                         _______ _______ _______ _____ _____    ______ ____
ROOT
ATOM      1  C   UNL     1      -2.968   7.572 -10.018  0.00  0.00    +0.000 C 
ATOM      2  H   UNL     1      -4.018   7.617 -10.326  0.00  0.00    +0.000 HD
ENDROOT
BRANCH   1   3
ATOM      3  C   UNL     1      -2.094   7.091 -11.163  0.00  0.00    +0.000 C 
ATOM      4  H   UNL     1      -2.565   6.253 -11.689  0.00  0.00    +0.000 HD
ATOM      5  H   UNL     1      -1.111   6.764 -10.812  0.00  0.00    +0.000 HD
ATOM      6  H   UNL     1      -1.951   7.889 -11.899  0.00  0.00    +0.000 HD
ENDBRANCH   1   3
BRANCH   1   7
ATOM      7  O   UNL     1      -2.857   6.639  -8.955  0.00  0.00    +0.000 OA
ATOM      8  H   UNL     1      -3.251   5.803  -9.258  0.00  0.00    +0.000 HD
ENDBRANCH   1   7
BRANCH   1  10
ATOM      9  O   UNL     1      -2.937   9.414  -8.460  0.00  0.00    +0.000 OA
ATOM     10  C   UNL     1      -2.536   8.945  -9.524  0.00  0.00    +0.000 C 
BRANCH  10  11
ATOM     11  C   UNL     1      -1.580   9.719 -10.396  0.00  0.00    +0.000 C 
ATOM     12  H   UNL     1      -0.674   9.134 -10.564  0.00  0.00    +0.000 HD
ATOM     13  H   UNL     1      -1.312  10.658  -9.902  0.00  0.00    +0.000 HD
ATOM     14  H   UNL     1      -2.060   9.958 -11.350  0.00  0.00    +0.000 HD
ENDBRANCH  10  11
ENDBRANCH   1  10
TORSDOF 4
ENDMDL
MODEL 9
REMARK VINA RESULT:    -3.250     11.662     12.640
REMARK INTER + INTRA:          -3.725
REMARK INTER:                  -3.725
REMARK INTRA:                   0.000
REMARK UNBOUND:                 0.000
REMARK  Name = 179
REMARK  4 active torsions:
REMARK  status: ('A' for Active; 'I' for Inactive)
REMARK    1  A    between atoms: O_1  and  C_3
REMARK    2  A    between atoms: C_3  and  C_4
REMARK    3  A    between atoms: C_3  and  C_5
REMARK    4  A    between atoms: C_4  and  C_6
REMARK                            x       y       z     vdW  Elec       q    Type
REMARK                         _______ _______ _______ _____ _____    ______ ____
ROOT
ATOM      1  C   UNL     1      -2.133   9.443 -10.347  0.00  0.00    +0.000 C 
ATOM      2  H   UNL     1      -2.740  10.034 -11.042  0.00  0.00    +0.000 HD
ENDROOT
BRANCH   1   3
ATOM      3  C   UNL     1      -2.769   9.418  -8.969  0.00  0.00    +0.000 C 
ATOM      4  H   UNL     1      -2.005   9.472  -8.185  0.00  0.00    +0.000 HD
ATOM      5  H   UNL     1      -3.355   8.508  -8.809  0.00  0.00    +0.000 HD
ATOM      6  H   UNL     1      -3.427  10.282  -8.832  0.00  0.00    +0.000 HD
ENDBRANCH   1   3
BRANCH   1   7
ATOM      7  O   UNL     1      -0.860  10.057 -10.236  0.00  0.00    +0.000 OA
ATOM      8  H   UNL     1      -0.268   9.423  -9.797  0.00  0.00    +0.000 HD
ENDBRANCH   1   7
BRANCH   1  10
ATOM      9  O   UNL     1      -1.154   7.783 -11.800  0.00  0.00    +0.000 OA
ATOM     10  C   UNL     1      -1.963   8.038 -10.908  0.00  0.00    +0.000 C 
BRANCH  10  11
ATOM     11  C   UNL     1      -2.829   6.953 -10.320  0.00  0.00    +0.000 C 
ATOM     12  H   UNL     1      -2.303   5.997 -10.358  0.00  0.00    +0.000 HD
ATOM     13  H   UNL     1      -3.756   6.874 -10.895  0.00  0.00    +0.000 HD
ATOM     14  H   UNL     1      -3.085   7.204  -9.287  0.00  0.00    +0.000 HD
ENDBRANCH  10  11
ENDBRANCH   1  10
TORSDOF 4
ENDMDL
MODEL 10
REMARK VINA RESULT:    -3.109     28.900     29.916
REMARK INTER + INTRA:          -3.563
REMARK INTER:                  -3.563
REMARK INTRA:                   0.000
REMARK UNBOUND:                 0.000
REMARK  Name = 179
REMARK  4 active torsions:
REMARK  status: ('A' for Active; 'I' for Inactive)
REMARK    1  A    between atoms: O_1  and  C_3
REMARK    2  A    between atoms: C_3  and  C_4
REMARK    3  A    between atoms: C_3  and  C_5
REMARK    4  A    between atoms: C_4  and  C_6
REMARK                            x       y       z     vdW  Elec       q    Type
REMARK                         _______ _______ _______ _____ _____    ______ ____
ROOT
ATOM      1  C   UNL     1     -20.779  -0.880   7.726  0.00  0.00    +0.000 C 
ATOM      2  H   UNL     1     -19.824  -0.971   8.256  0.00  0.00    +0.000 HD
ENDROOT
BRANCH   1   3
ATOM      3  C   UNL     1     -20.569  -0.310   6.335  0.00  0.00    +0.000 C 
ATOM      4  H   UNL     1     -20.708   0.777   6.333  0.00  0.00    +0.000 HD
ATOM      5  H   UNL     1     -21.263  -0.744   5.610  0.00  0.00    +0.000 HD
ATOM      6  H   UNL     1     -19.546  -0.499   5.992  0.00  0.00    +0.000 HD
ENDBRANCH   1   3
BRANCH   1   7
ATOM      7  O   UNL     1     -21.605   0.017   8.452  0.00  0.00    +0.000 OA
ATOM      8  H   UNL     1     -21.751   0.797   7.890  0.00  0.00    +0.000 HD
ENDBRANCH   1   7
BRANCH   1  10
ATOM      9  O   UNL     1     -22.207  -2.637   8.562  0.00  0.00    +0.000 OA
ATOM     10  C   UNL     1     -21.450  -2.245   7.674  0.00  0.00    +0.000 C 
BRANCH  10  11
ATOM     11  C   UNL     1     -21.155  -3.111   6.475  0.00  0.00    +0.000 C 
ATOM     12  H   UNL     1     -20.950  -2.483   5.606  0.00  0.00    +0.000 HD
ATOM     13  H   UNL     1     -22.019  -3.747   6.262  0.00  0.00    +0.000 HD
ATOM     14  H   UNL     1     -20.297  -3.756   6.687  0.00  0.00    +0.000 HD
ENDBRANCH  10  11
ENDBRANCH   1  10
TORSDOF 4
ENDMDL
