MODEL 1
REMARK VINA RESULT:    -3.767      0.000      0.000
REMARK INTER + INTRA:          -4.350
REMARK INTER:                  -4.320
REMARK INTRA:                  -0.030
REMARK UNBOUND:                -0.033
REMARK  Name = 11173
REMARK  4 active torsions:
REMARK  status: ('A' for Active; 'I' for Inactive)
REMARK    1  A    between atoms: O_1  and  C_6
REMARK    2  A    between atoms: C_2  and  C_4
REMARK    3  A    between atoms: C_2  and  C_5
REMARK    4  A    between atoms: C_3  and  C_6
REMARK                            x       y       z     vdW  Elec       q    Type
REMARK                         _______ _______ _______ _____ _____    ______ ____
ROOT
ATOM      1  C   UNL     1      -2.913   7.533  -9.837  0.00  0.00    +0.000 C 
ATOM      2  C   UNL     1      -2.724   8.844  -9.593  0.00  0.00    +0.000 C 
ATOM      3  H   UNL     1      -3.126   9.253  -8.667  0.00  0.00    +0.000 HD
ENDROOT
BRANCH   1   4
ATOM      4  C   UNL     1      -3.653   6.675  -8.845  0.00  0.00    +0.000 C 
ATOM      5  H   UNL     1      -4.725   6.898  -8.877  0.00  0.00    +0.000 HD
ATOM      6  H   UNL     1      -3.510   5.615  -9.081  0.00  0.00    +0.000 HD
ATOM      7  H   UNL     1      -3.312   6.834  -7.817  0.00  0.00    +0.000 HD
ENDBRANCH   1   4
BRANCH   1   8
ATOM      8  C   UNL     1      -2.437   6.796 -11.056  0.00  0.00    +0.000 C 
ATOM      9  H   UNL     1      -3.069   7.045 -11.915  0.00  0.00    +0.000 HD
ATOM     10  H   UNL     1      -1.407   7.023 -11.336  0.00  0.00    +0.000 HD
ATOM     11  H   UNL     1      -2.498   5.715 -10.888  0.00  0.00    +0.000 HD
ENDBRANCH   1   8
BRANCH   2  12
ATOM     12  C   UNL     1      -2.026   9.853 -10.451  0.00  0.00    +0.000 C 
ATOM     13  H   UNL     1      -2.577  10.798 -10.417  0.00  0.00    +0.000 HD
ATOM     14  H   UNL     1      -1.931   9.551 -11.494  0.00  0.00    +0.000 HD
BRANCH  12  15
ATOM     15  O   UNL     1      -0.717  10.083  -9.941  0.00  0.00    +0.000 OA
ATOM     16  H   UNL     1      -0.596   9.485  -9.184  0.00  0.00    +0.000 HD
ENDBRANCH  12  15
ENDBRANCH   2  12
TORSDOF 4
ENDMDL
MODEL 2
REMARK VINA RESULT:    -3.662      1.881      2.490
REMARK INTER + INTRA:          -4.230
REMARK INTER:                  -4.194
REMARK INTRA:                  -0.036
REMARK UNBOUND:                -0.033
REMARK  Name = 11173
REMARK  4 active torsions:
REMARK  status: ('A' for Active; 'I' for Inactive)
REMARK    1  A    between atoms: O_1  and  C_6
REMARK    2  A    between atoms: C_2  and  C_4
REMARK    3  A    between atoms: C_2  and  C_5
REMARK    4  A    between atoms: C_3  and  C_6
REMARK                            x       y       z     vdW  Elec       q    Type
REMARK                         _______ _______ _______ _____ _____    ______ ____
ROOT
ATOM      1  C   UNL     1      -3.397   7.177  -9.620  0.00  0.00    +0.000 C 
ATOM      2  C   UNL     1      -3.093   6.709 -10.847  0.00  0.00    +0.000 C 
ATOM      3  H   UNL     1      -3.579   5.792 -11.177  0.00  0.00    +0.000 HD
ENDROOT
BRANCH   1   4
ATOM      4  C   UNL     1      -4.385   6.443  -8.753  0.00  0.00    +0.000 C 
ATOM      5  H   UNL     1      -5.001   5.773  -9.362  0.00  0.00    +0.000 HD
ATOM      6  H   UNL     1      -3.858   5.844  -8.002  0.00  0.00    +0.000 HD
ATOM      7  H   UNL     1      -5.060   7.121  -8.220  0.00  0.00    +0.000 HD
ENDBRANCH   1   4
BRANCH   1   8
ATOM      8  C   UNL     1      -2.827   8.417  -8.994  0.00  0.00    +0.000 C 
ATOM      9  H   UNL     1      -2.054   8.843  -9.643  0.00  0.00    +0.000 HD
ATOM     10  H   UNL     1      -3.566   9.199  -8.813  0.00  0.00    +0.000 HD
ATOM     11  H   UNL     1      -2.369   8.173  -8.029  0.00  0.00    +0.000 HD
ENDBRANCH   1   8
BRANCH   2  12
ATOM     12  C   UNL     1      -2.141   7.288 -11.846  0.00  0.00    +0.000 C 
ATOM     13  H   UNL     1      -2.058   8.367 -11.681  0.00  0.00    +0.000 HD
ATOM     14  H   UNL     1      -2.438   7.124 -12.882  0.00  0.00    +0.000 HD
BRANCH  12  15
ATOM     15  O   UNL     1      -0.853   6.710 -11.663  0.00  0.00    +0.000 OA
ATOM     16  H   UNL     1      -0.961   5.961 -11.053  0.00  0.00    +0.000 HD
ENDBRANCH  12  15
ENDBRANCH   2  12
TORSDOF 4
ENDMDL
MODEL 3
REMARK VINA RESULT:    -3.495     28.495     29.524
REMARK INTER + INTRA:          -4.039
REMARK INTER:                  -4.162
REMARK INTRA:                   0.123
REMARK UNBOUND:                -0.033
REMARK  Name = 11173
REMARK  4 active torsions:
REMARK  status: ('A' for Active; 'I' for Inactive)
REMARK    1  A    between atoms: O_1  and  C_6
REMARK    2  A    between atoms: C_2  and  C_4
REMARK    3  A    between atoms: C_2  and  C_5
REMARK    4  A    between atoms: C_3  and  C_6
REMARK                            x       y       z     vdW  Elec       q    Type
REMARK                         _______ _______ _______ _____ _____    ______ ____
ROOT
ATOM      1  C   UNL     1     -10.110   8.977  19.257  0.00  0.00    +0.000 C 
ATOM      2  C   UNL     1      -9.782   9.493  18.057  0.00  0.00    +0.000 C 
ATOM      3  H   UNL     1     -10.147  10.490  17.814  0.00  0.00    +0.000 HD
ENDROOT
BRANCH   1   4
ATOM      4  C   UNL     1     -10.949   9.773  20.221  0.00  0.00    +0.000 C 
ATOM      5  H   UNL     1     -11.761   9.154  20.618  0.00  0.00    +0.000 HD
ATOM      6  H   UNL     1     -10.336  10.121  21.060  0.00  0.00    +0.000 HD
ATOM      7  H   UNL     1     -11.401  10.655  19.755  0.00  0.00    +0.000 HD
ENDBRANCH   1   4
BRANCH   1   8
ATOM      8  C   UNL     1      -9.705   7.623  19.764  0.00  0.00    +0.000 C 
ATOM      9  H   UNL     1      -9.789   7.591  20.856  0.00  0.00    +0.000 HD
ATOM     10  H   UNL     1     -10.310   6.805  19.370  0.00  0.00    +0.000 HD
ATOM     11  H   UNL     1      -8.664   7.417  19.493  0.00  0.00    +0.000 HD
ENDBRANCH   1   8
BRANCH   2  12
ATOM     12  C   UNL     1      -8.970   8.861  16.970  0.00  0.00    +0.000 C 
ATOM     13  H   UNL     1      -8.841   9.578  16.153  0.00  0.00    +0.000 HD
ATOM     14  H   UNL     1      -9.415   7.954  16.560  0.00  0.00    +0.000 HD
BRANCH  12  15
ATOM     15  O   UNL     1      -7.681   8.528  17.475  0.00  0.00    +0.000 OA
ATOM     16  H   UNL     1      -7.062   8.570  16.726  0.00  0.00    +0.000 HD
ENDBRANCH  12  15
ENDBRANCH   2  12
TORSDOF 4
ENDMDL
MODEL 4
REMARK VINA RESULT:    -3.413     25.555     26.167
REMARK INTER + INTRA:          -3.944
REMARK INTER:                  -3.939
REMARK INTRA:                  -0.006
REMARK UNBOUND:                -0.033
REMARK  Name = 11173
REMARK  4 active torsions:
REMARK  status: ('A' for Active; 'I' for Inactive)
REMARK    1  A    between atoms: O_1  and  C_6
REMARK    2  A    between atoms: C_2  and  C_4
REMARK    3  A    between atoms: C_2  and  C_5
REMARK    4  A    between atoms: C_3  and  C_6
REMARK                            x       y       z     vdW  Elec       q    Type
REMARK                         _______ _______ _______ _____ _____    ______ ____
ROOT
ATOM      1  C   UNL     1     -20.721  -2.999   4.575  0.00  0.00    +0.000 C 
ATOM      2  C   UNL     1     -20.054  -3.946   5.262  0.00  0.00    +0.000 C 
ATOM      3  H   UNL     1     -19.981  -3.835   6.343  0.00  0.00    +0.000 HD
ENDROOT
BRANCH   1   4
ATOM      4  C   UNL     1     -21.345  -1.834   5.298  0.00  0.00    +0.000 C 
ATOM      5  H   UNL     1     -21.807  -2.172   6.232  0.00  0.00    +0.000 HD
ATOM      6  H   UNL     1     -20.582  -1.086   5.539  0.00  0.00    +0.000 HD
ATOM      7  H   UNL     1     -22.120  -1.338   4.705  0.00  0.00    +0.000 HD
ENDBRANCH   1   4
BRANCH   1   8
ATOM      8  C   UNL     1     -20.922  -2.979   3.087  0.00  0.00    +0.000 C 
ATOM      9  H   UNL     1     -20.007  -2.641   2.589  0.00  0.00    +0.000 HD
ATOM     10  H   UNL     1     -21.180  -3.951   2.663  0.00  0.00    +0.000 HD
ATOM     11  H   UNL     1     -21.730  -2.287   2.827  0.00  0.00    +0.000 HD
ENDBRANCH   1   8
BRANCH   2  12
ATOM     12  C   UNL     1     -19.368  -5.164   4.727  0.00  0.00    +0.000 C 
ATOM     13  H   UNL     1     -18.783  -4.889   3.844  0.00  0.00    +0.000 HD
ATOM     14  H   UNL     1     -20.051  -5.966   4.447  0.00  0.00    +0.000 HD
BRANCH  12  15
ATOM     15  O   UNL     1     -18.473  -5.674   5.711  0.00  0.00    +0.000 OA
ATOM     16  H   UNL     1     -18.917  -5.587   6.572  0.00  0.00    +0.000 HD
ENDBRANCH  12  15
ENDBRANCH   2  12
TORSDOF 4
ENDMDL
MODEL 5
REMARK VINA RESULT:    -3.389     12.197     12.762
REMARK INTER + INTRA:          -3.918
REMARK INTER:                  -3.881
REMARK INTRA:                  -0.036
REMARK UNBOUND:                -0.033
REMARK  Name = 11173
REMARK  4 active torsions:
REMARK  status: ('A' for Active; 'I' for Inactive)
REMARK    1  A    between atoms: O_1  and  C_6
REMARK    2  A    between atoms: C_2  and  C_4
REMARK    3  A    between atoms: C_2  and  C_5
REMARK    4  A    between atoms: C_3  and  C_6
REMARK                            x       y       z     vdW  Elec       q    Type
REMARK                         _______ _______ _______ _____ _____    ______ ____
ROOT
ATOM      1  C   UNL     1       3.866  10.888  -0.271  0.00  0.00    +0.000 C 
ATOM      2  C   UNL     1       3.618   9.736   0.383  0.00  0.00    +0.000 C 
ATOM      3  H   UNL     1       2.968   9.007  -0.099  0.00  0.00    +0.000 HD
ENDROOT
BRANCH   1   4
ATOM      4  C   UNL     1       3.261  11.136  -1.627  0.00  0.00    +0.000 C 
ATOM      5  H   UNL     1       2.294  10.628  -1.710  0.00  0.00    +0.000 HD
ATOM      6  H   UNL     1       3.104  12.210  -1.781  0.00  0.00    +0.000 HD
ATOM      7  H   UNL     1       3.896  10.775  -2.442  0.00  0.00    +0.000 HD
ENDBRANCH   1   4
BRANCH   1   8
ATOM      8  C   UNL     1       4.729  12.009   0.234  0.00  0.00    +0.000 C 
ATOM      9  H   UNL     1       4.953  12.706  -0.581  0.00  0.00    +0.000 HD
ATOM     10  H   UNL     1       4.274  12.588   1.039  0.00  0.00    +0.000 HD
ATOM     11  H   UNL     1       5.675  11.610   0.616  0.00  0.00    +0.000 HD
ENDBRANCH   1   8
BRANCH   2  12
ATOM     12  C   UNL     1       4.117   9.311   1.728  0.00  0.00    +0.000 C 
ATOM     13  H   UNL     1       5.066   9.815   1.935  0.00  0.00    +0.000 HD
ATOM     14  H   UNL     1       4.275   8.236   1.818  0.00  0.00    +0.000 HD
BRANCH  12  15
ATOM     15  O   UNL     1       3.180   9.701   2.726  0.00  0.00    +0.000 OA
ATOM     16  H   UNL     1       3.689  10.080   3.463  0.00  0.00    +0.000 HD
ENDBRANCH  12  15
ENDBRANCH   2  12
TORSDOF 4
ENDMDL
MODEL 6
REMARK VINA RESULT:    -3.306      7.957      8.456
REMARK INTER + INTRA:          -3.822
REMARK INTER:                  -3.784
REMARK INTRA:                  -0.038
REMARK UNBOUND:                -0.033
REMARK  Name = 11173
REMARK  4 active torsions:
REMARK  status: ('A' for Active; 'I' for Inactive)
REMARK    1  A    between atoms: O_1  and  C_6
REMARK    2  A    between atoms: C_2  and  C_4
REMARK    3  A    between atoms: C_2  and  C_5
REMARK    4  A    between atoms: C_3  and  C_6
REMARK                            x       y       z     vdW  Elec       q    Type
REMARK                         _______ _______ _______ _____ _____    ______ ____
ROOT
ATOM      1  C   UNL     1      -8.725   4.009  -5.974  0.00  0.00    +0.000 C 
ATOM      2  C   UNL     1      -8.703   5.328  -6.245  0.00  0.00    +0.000 C 
ATOM      3  H   UNL     1      -8.520   5.634  -7.274  0.00  0.00    +0.000 HD
ENDROOT
BRANCH   1   4
ATOM      4  C   UNL     1      -8.509   3.005  -7.075  0.00  0.00    +0.000 C 
ATOM      5  H   UNL     1      -9.407   2.923  -7.696  0.00  0.00    +0.000 HD
ATOM      6  H   UNL     1      -7.673   3.315  -7.712  0.00  0.00    +0.000 HD
ATOM      7  H   UNL     1      -8.279   2.005  -6.692  0.00  0.00    +0.000 HD
ENDBRANCH   1   4
BRANCH   1   8
ATOM      8  C   UNL     1      -8.957   3.400  -4.620  0.00  0.00    +0.000 C 
ATOM      9  H   UNL     1      -8.303   3.874  -3.880  0.00  0.00    +0.000 HD
ATOM     10  H   UNL     1      -9.981   3.502  -4.260  0.00  0.00    +0.000 HD
ATOM     11  H   UNL     1      -8.726   2.329  -4.647  0.00  0.00    +0.000 HD
ENDBRANCH   1   8
BRANCH   2  12
ATOM     12  C   UNL     1      -8.890   6.470  -5.295  0.00  0.00    +0.000 C 
ATOM     13  H   UNL     1      -9.640   6.196  -4.546  0.00  0.00    +0.000 HD
ATOM     14  H   UNL     1      -9.211   7.394  -5.776  0.00  0.00    +0.000 HD
BRANCH  12  15
ATOM     15  O   UNL     1      -7.663   6.730  -4.620  0.00  0.00    +0.000 OA
ATOM     16  H   UNL     1      -7.851   6.700  -3.666  0.00  0.00    +0.000 HD
ENDBRANCH  12  15
ENDBRANCH   2  12
TORSDOF 4
ENDMDL
MODEL 7
REMARK VINA RESULT:    -3.269     26.801     28.251
REMARK INTER + INTRA:          -3.779
REMARK INTER:                  -3.774
REMARK INTRA:                  -0.005
REMARK UNBOUND:                -0.033
REMARK  Name = 11173
REMARK  4 active torsions:
REMARK  status: ('A' for Active; 'I' for Inactive)
REMARK    1  A    between atoms: O_1  and  C_6
REMARK    2  A    between atoms: C_2  and  C_4
REMARK    3  A    between atoms: C_2  and  C_5
REMARK    4  A    between atoms: C_3  and  C_6
REMARK                            x       y       z     vdW  Elec       q    Type
REMARK                         _______ _______ _______ _____ _____    ______ ____
ROOT
ATOM      1  C   UNL     1     -21.152  -1.301   7.465  0.00  0.00    +0.000 C 
ATOM      2  C   UNL     1     -21.841  -0.562   8.357  0.00  0.00    +0.000 C 
ATOM      3  H   UNL     1     -21.581   0.491   8.456  0.00  0.00    +0.000 HD
ENDROOT
BRANCH   1   4
ATOM      4  C   UNL     1     -20.065  -0.670   6.637  0.00  0.00    +0.000 C 
ATOM      5  H   UNL     1     -19.661  -1.396   5.923  0.00  0.00    +0.000 HD
ATOM      6  H   UNL     1     -20.462   0.184   6.077  0.00  0.00    +0.000 HD
ATOM      7  H   UNL     1     -19.231  -0.306   7.246  0.00  0.00    +0.000 HD
ENDBRANCH   1   4
BRANCH   1   8
ATOM      8  C   UNL     1     -21.365  -2.763   7.194  0.00  0.00    +0.000 C 
ATOM      9  H   UNL     1     -20.609  -3.127   6.489  0.00  0.00    +0.000 HD
ATOM     10  H   UNL     1     -21.305  -3.390   8.085  0.00  0.00    +0.000 HD
ATOM     11  H   UNL     1     -22.354  -2.921   6.750  0.00  0.00    +0.000 HD
ENDBRANCH   1   8
BRANCH   2  12
ATOM     12  C   UNL     1     -22.943  -1.005   9.268  0.00  0.00    +0.000 C 
ATOM     13  H   UNL     1     -22.526  -1.638  10.057  0.00  0.00    +0.000 HD
ATOM     14  H   UNL     1     -23.732  -1.564   8.764  0.00  0.00    +0.000 HD
BRANCH  12  15
ATOM     15  O   UNL     1     -23.537   0.135   9.881  0.00  0.00    +0.000 OA
ATOM     16  H   UNL     1     -23.534   0.848   9.219  0.00  0.00    +0.000 HD
ENDBRANCH  12  15
ENDBRANCH   2  12
TORSDOF 4
ENDMDL
MODEL 8
REMARK VINA RESULT:    -3.197     16.794     17.610
REMARK INTER + INTRA:          -3.697
REMARK INTER:                  -3.684
REMARK INTRA:                  -0.014
REMARK UNBOUND:                -0.033
REMARK  Name = 11173
REMARK  4 active torsions:
REMARK  status: ('A' for Active; 'I' for Inactive)
REMARK    1  A    between atoms: O_1  and  C_6
REMARK    2  A    between atoms: C_2  and  C_4
REMARK    3  A    between atoms: C_2  and  C_5
REMARK    4  A    between atoms: C_3  and  C_6
REMARK                            x       y       z     vdW  Elec       q    Type
REMARK                         _______ _______ _______ _____ _____    ______ ____
ROOT
ATOM      1  C   UNL     1      -7.269  12.260   5.497  0.00  0.00    +0.000 C 
ATOM      2  C   UNL     1      -7.886  12.137   6.688  0.00  0.00    +0.000 C 
ATOM      3  H   UNL     1      -7.736  12.926   7.424  0.00  0.00    +0.000 HD
ENDROOT
BRANCH   1   4
ATOM      4  C   UNL     1      -6.409  13.462   5.209  0.00  0.00    +0.000 C 
ATOM      5  H   UNL     1      -6.523  13.769   4.164  0.00  0.00    +0.000 HD
ATOM      6  H   UNL     1      -6.702  14.300   5.851  0.00  0.00    +0.000 HD
ATOM      7  H   UNL     1      -5.346  13.268   5.383  0.00  0.00    +0.000 HD
ENDBRANCH   1   4
BRANCH   1   8
ATOM      8  C   UNL     1      -7.354  11.277   4.366  0.00  0.00    +0.000 C 
ATOM      9  H   UNL     1      -6.795  10.368   4.616  0.00  0.00    +0.000 HD
ATOM     10  H   UNL     1      -8.372  10.972   4.121  0.00  0.00    +0.000 HD
ATOM     11  H   UNL     1      -6.917  11.710   3.459  0.00  0.00    +0.000 HD
ENDBRANCH   1   8
BRANCH   2  12
ATOM     12  C   UNL     1      -8.769  11.025   7.161  0.00  0.00    +0.000 C 
ATOM     13  H   UNL     1      -8.797  10.240   6.400  0.00  0.00    +0.000 HD
ATOM     14  H   UNL     1      -9.794  11.335   7.368  0.00  0.00    +0.000 HD
BRANCH  12  15
ATOM     15  O   UNL     1      -8.230  10.467   8.355  0.00  0.00    +0.000 OA
ATOM     16  H   UNL     1      -8.921   9.905   8.745  0.00  0.00    +0.000 HD
ENDBRANCH  12  15
ENDBRANCH   2  12
TORSDOF 4
ENDMDL
MODEL 9
REMARK VINA RESULT:    -3.189      1.653      2.160
REMARK INTER + INTRA:          -3.688
REMARK INTER:                  -3.665
REMARK INTRA:                  -0.024
REMARK UNBOUND:                -0.033
REMARK  Name = 11173
REMARK  4 active torsions:
REMARK  status: ('A' for Active; 'I' for Inactive)
REMARK    1  A    between atoms: O_1  and  C_6
REMARK    2  A    between atoms: C_2  and  C_4
REMARK    3  A    between atoms: C_2  and  C_5
REMARK    4  A    between atoms: C_3  and  C_6
REMARK                            x       y       z     vdW  Elec       q    Type
REMARK                         _______ _______ _______ _____ _____    ______ ____
ROOT
ATOM      1  C   UNL     1      -2.239   8.913 -10.213  0.00  0.00    +0.000 C 
ATOM      2  C   UNL     1      -1.380   9.730 -10.853  0.00  0.00    +0.000 C 
ATOM      3  H   UNL     1      -1.069  10.642 -10.345  0.00  0.00    +0.000 HD
ENDROOT
BRANCH   1   4
ATOM      4  C   UNL     1      -2.737   9.265  -8.836  0.00  0.00    +0.000 C 
ATOM      5  H   UNL     1      -2.389   8.526  -8.107  0.00  0.00    +0.000 HD
ATOM      6  H   UNL     1      -2.362  10.251  -8.539  0.00  0.00    +0.000 HD
ATOM      7  H   UNL     1      -3.830   9.297  -8.781  0.00  0.00    +0.000 HD
ENDBRANCH   1   4
BRANCH   1   8
ATOM      8  C   UNL     1      -2.781   7.621 -10.754  0.00  0.00    +0.000 C 
ATOM      9  H   UNL     1      -2.799   7.651 -11.849  0.00  0.00    +0.000 HD
ATOM     10  H   UNL     1      -2.201   6.744 -10.464  0.00  0.00    +0.000 HD
ATOM     11  H   UNL     1      -3.805   7.467 -10.398  0.00  0.00    +0.000 HD
ENDBRANCH   1   8
BRANCH   2  12
ATOM     12  C   UNL     1      -0.782   9.558 -12.215  0.00  0.00    +0.000 C 
ATOM     13  H   UNL     1      -0.337  10.505 -12.534  0.00  0.00    +0.000 HD
ATOM     14  H   UNL     1      -1.501   9.247 -12.974  0.00  0.00    +0.000 HD
BRANCH  12  15
ATOM     15  O   UNL     1       0.249   8.578 -12.159  0.00  0.00    +0.000 OA
ATOM     16  H   UNL     1       0.793   8.781 -11.380  0.00  0.00    +0.000 HD
ENDBRANCH  12  15
ENDBRANCH   2  12
TORSDOF 4
ENDMDL
MODEL 10
REMARK VINA RESULT:    -3.070     32.596     33.328
REMARK INTER + INTRA:          -3.551
REMARK INTER:                  -3.518
REMARK INTRA:                  -0.033
REMARK UNBOUND:                -0.033
REMARK  Name = 11173
REMARK  4 active torsions:
REMARK  status: ('A' for Active; 'I' for Inactive)
REMARK    1  A    between atoms: O_1  and  C_6
REMARK    2  A    between atoms: C_2  and  C_4
REMARK    3  A    between atoms: C_2  and  C_5
REMARK    4  A    between atoms: C_3  and  C_6
REMARK                            x       y       z     vdW  Elec       q    Type
REMARK                         _______ _______ _______ _____ _____    ______ ____
ROOT
ATOM      1  C   UNL     1     -10.140 -11.107  16.362  0.00  0.00    +0.000 C 
ATOM      2  C   UNL     1      -9.094 -10.810  15.566  0.00  0.00    +0.000 C 
ATOM      3  H   UNL     1      -9.264 -10.124  14.737  0.00  0.00    +0.000 HD
ENDROOT
BRANCH   1   4
ATOM      4  C   UNL     1     -11.490 -10.493  16.101  0.00  0.00    +0.000 C 
ATOM      5  H   UNL     1     -11.615  -9.584  16.698  0.00  0.00    +0.000 HD
ATOM      6  H   UNL     1     -11.588 -10.231  15.042  0.00  0.00    +0.000 HD
ATOM      7  H   UNL     1     -12.314 -11.170  16.352  0.00  0.00    +0.000 HD
ENDBRANCH   1   4
BRANCH   1   8
ATOM      8  C   UNL     1     -10.100 -12.031  17.545  0.00  0.00    +0.000 C 
ATOM      9  H   UNL     1     -10.655 -11.593  18.382  0.00  0.00    +0.000 HD
ATOM     10  H   UNL     1     -10.531 -13.015  17.351  0.00  0.00    +0.000 HD
ATOM     11  H   UNL     1      -9.064 -12.187  17.864  0.00  0.00    +0.000 HD
ENDBRANCH   1   8
BRANCH   2  12
ATOM     12  C   UNL     1      -7.689 -11.317  15.659  0.00  0.00    +0.000 C 
ATOM     13  H   UNL     1      -7.284 -11.441  14.650  0.00  0.00    +0.000 HD
ATOM     14  H   UNL     1      -7.600 -12.270  16.181  0.00  0.00    +0.000 HD
BRANCH  12  15
ATOM     15  O   UNL     1      -6.886 -10.364  16.346  0.00  0.00    +0.000 OA
ATOM     16  H   UNL     1      -6.462 -10.830  17.087  0.00  0.00    +0.000 HD
ENDBRANCH  12  15
ENDBRANCH   2  12
TORSDOF 4
ENDMDL
