MODEL 1
REMARK VINA RESULT:    -3.582      0.000      0.000
REMARK INTER + INTRA:          -4.364
REMARK INTER:                  -4.333
REMARK INTRA:                  -0.032
REMARK UNBOUND:                -0.049
REMARK  Name = 31260
REMARK  5 active torsions:
REMARK  status: ('A' for Active; 'I' for Inactive)
REMARK    1  A    between atoms: O_1  and  C_6
REMARK    2  A    between atoms: C_2  and  C_3
REMARK    3  A    between atoms: C_2  and  C_4
REMARK    4  A    between atoms: C_2  and  C_5
REMARK    5  A    between atoms: C_3  and  C_6
REMARK                            x       y       z     vdW  Elec       q    Type
REMARK                         _______ _______ _______ _____ _____    ______ ____
ROOT
ATOM      1  C   UNL     1      -3.251   6.862  -9.338  0.00  0.00    +0.000 C 
ATOM      2  H   UNL     1      -2.467   6.215  -8.925  0.00  0.00    +0.000 HD
ENDROOT
BRANCH   1   3
ATOM      3  C   UNL     1      -2.976   8.301  -8.894  0.00  0.00    +0.000 C 
ATOM      4  H   UNL     1      -3.856   8.926  -9.080  0.00  0.00    +0.000 HD
ATOM      5  H   UNL     1      -2.141   8.755  -9.438  0.00  0.00    +0.000 HD
ATOM      6  H   UNL     1      -2.760   8.350  -7.822  0.00  0.00    +0.000 HD
ENDBRANCH   1   3
BRANCH   1   7
ATOM      7  C   UNL     1      -4.599   6.400  -8.782  0.00  0.00    +0.000 C 
ATOM      8  H   UNL     1      -5.435   6.977  -9.189  0.00  0.00    +0.000 HD
ATOM      9  H   UNL     1      -4.621   6.513  -7.694  0.00  0.00    +0.000 HD
ATOM     10  H   UNL     1      -4.770   5.343  -9.011  0.00  0.00    +0.000 HD
ENDBRANCH   1   7
BRANCH   1  11
ATOM     11  C   UNL     1      -3.185   6.766 -10.870  0.00  0.00    +0.000 C 
ATOM     12  H   UNL     1      -4.116   7.154 -11.302  0.00  0.00    +0.000 HD
ATOM     13  H   UNL     1      -3.143   5.712 -11.173  0.00  0.00    +0.000 HD
BRANCH  11  14
ATOM     14  C   UNL     1      -2.000   7.503 -11.481  0.00  0.00    +0.000 C 
ATOM     15  H   UNL     1      -2.233   7.926 -12.462  0.00  0.00    +0.000 HD
ATOM     16  H   UNL     1      -1.637   8.304 -10.832  0.00  0.00    +0.000 HD
BRANCH  14  17
ATOM     17  O   UNL     1      -0.927   6.584 -11.646  0.00  0.00    +0.000 OA
ATOM     18  H   UNL     1      -1.233   5.715 -11.334  0.00  0.00    +0.000 HD
ENDBRANCH  14  17
ENDBRANCH  11  14
ENDBRANCH   1  11
TORSDOF 5
ENDMDL
MODEL 2
REMARK VINA RESULT:    -3.581      1.972      2.493
REMARK INTER + INTRA:          -4.363
REMARK INTER:                  -4.328
REMARK INTRA:                  -0.035
REMARK UNBOUND:                -0.049
REMARK  Name = 31260
REMARK  5 active torsions:
REMARK  status: ('A' for Active; 'I' for Inactive)
REMARK    1  A    between atoms: O_1  and  C_6
REMARK    2  A    between atoms: C_2  and  C_3
REMARK    3  A    between atoms: C_2  and  C_4
REMARK    4  A    between atoms: C_2  and  C_5
REMARK    5  A    between atoms: C_3  and  C_6
REMARK                            x       y       z     vdW  Elec       q    Type
REMARK                         _______ _______ _______ _____ _____    ______ ____
ROOT
ATOM      1  C   UNL     1      -3.295   7.615  -9.905  0.00  0.00    +0.000 C 
ATOM      2  H   UNL     1      -4.152   8.007 -10.467  0.00  0.00    +0.000 HD
ENDROOT
BRANCH   1   3
ATOM      3  C   UNL     1      -2.371   6.879 -10.877  0.00  0.00    +0.000 C 
ATOM      4  H   UNL     1      -2.866   5.979 -11.257  0.00  0.00    +0.000 HD
ATOM      5  H   UNL     1      -1.438   6.555 -10.403  0.00  0.00    +0.000 HD
ATOM      6  H   UNL     1      -2.122   7.507 -11.739  0.00  0.00    +0.000 HD
ENDBRANCH   1   3
BRANCH   1   7
ATOM      7  C   UNL     1      -3.818   6.639  -8.850  0.00  0.00    +0.000 C 
ATOM      8  H   UNL     1      -4.864   6.364  -9.021  0.00  0.00    +0.000 HD
ATOM      9  H   UNL     1      -3.756   7.087  -7.853  0.00  0.00    +0.000 HD
ATOM     10  H   UNL     1      -3.221   5.721  -8.841  0.00  0.00    +0.000 HD
ENDBRANCH   1   7
BRANCH   1  11
ATOM     11  C   UNL     1      -2.555   8.809  -9.281  0.00  0.00    +0.000 C 
ATOM     12  H   UNL     1      -1.690   8.446  -8.711  0.00  0.00    +0.000 HD
ATOM     13  H   UNL     1      -3.202   9.301  -8.543  0.00  0.00    +0.000 HD
BRANCH  11  14
ATOM     14  C   UNL     1      -2.091   9.843 -10.299  0.00  0.00    +0.000 C 
ATOM     15  H   UNL     1      -2.156   9.473 -11.327  0.00  0.00    +0.000 HD
ATOM     16  H   UNL     1      -2.658  10.773 -10.225  0.00  0.00    +0.000 HD
BRANCH  14  17
ATOM     17  O   UNL     1      -0.730  10.163 -10.037  0.00  0.00    +0.000 OA
ATOM     18  H   UNL     1      -0.643  11.131 -10.073  0.00  0.00    +0.000 HD
ENDBRANCH  14  17
ENDBRANCH  11  14
ENDBRANCH   1  11
TORSDOF 5
ENDMDL
MODEL 3
REMARK VINA RESULT:    -3.458      2.319      3.168
REMARK INTER + INTRA:          -4.215
REMARK INTER:                  -4.190
REMARK INTRA:                  -0.025
REMARK UNBOUND:                -0.049
REMARK  Name = 31260
REMARK  5 active torsions:
REMARK  status: ('A' for Active; 'I' for Inactive)
REMARK    1  A    between atoms: O_1  and  C_6
REMARK    2  A    between atoms: C_2  and  C_3
REMARK    3  A    between atoms: C_2  and  C_4
REMARK    4  A    between atoms: C_2  and  C_5
REMARK    5  A    between atoms: C_3  and  C_6
REMARK                            x       y       z     vdW  Elec       q    Type
REMARK                         _______ _______ _______ _____ _____    ______ ____
ROOT
ATOM      1  C   UNL     1      -3.203   6.707 -10.057  0.00  0.00    +0.000 C 
ATOM      2  H   UNL     1      -3.059   5.688  -9.676  0.00  0.00    +0.000 HD
ENDROOT
BRANCH   1   3
ATOM      3  C   UNL     1      -4.554   6.771 -10.774  0.00  0.00    +0.000 C 
ATOM      4  H   UNL     1      -4.436   7.239 -11.757  0.00  0.00    +0.000 HD
ATOM      5  H   UNL     1      -5.292   7.364 -10.225  0.00  0.00    +0.000 HD
ATOM      6  H   UNL     1      -4.964   5.769 -10.935  0.00  0.00    +0.000 HD
ENDBRANCH   1   3
BRANCH   1   7
ATOM      7  C   UNL     1      -2.078   7.015 -11.047  0.00  0.00    +0.000 C 
ATOM      8  H   UNL     1      -1.087   6.865 -10.608  0.00  0.00    +0.000 HD
ATOM      9  H   UNL     1      -2.137   8.057 -11.377  0.00  0.00    +0.000 HD
ATOM     10  H   UNL     1      -2.159   6.379 -11.935  0.00  0.00    +0.000 HD
ENDBRANCH   1   7
BRANCH   1  11
ATOM     11  C   UNL     1      -3.203   7.665  -8.855  0.00  0.00    +0.000 C 
ATOM     12  H   UNL     1      -2.785   7.153  -7.979  0.00  0.00    +0.000 HD
ATOM     13  H   UNL     1      -4.237   7.912  -8.580  0.00  0.00    +0.000 HD
BRANCH  11  14
ATOM     14  C   UNL     1      -2.435   8.957  -9.100  0.00  0.00    +0.000 C 
ATOM     15  H   UNL     1      -1.445   8.946  -8.636  0.00  0.00    +0.000 HD
ATOM     16  H   UNL     1      -2.320   9.169 -10.166  0.00  0.00    +0.000 HD
BRANCH  14  17
ATOM     17  O   UNL     1      -3.169  10.038  -8.537  0.00  0.00    +0.000 OA
ATOM     18  H   UNL     1      -2.836  10.859  -8.938  0.00  0.00    +0.000 HD
ENDBRANCH  14  17
ENDBRANCH  11  14
ENDBRANCH   1  11
TORSDOF 5
ENDMDL
MODEL 4
REMARK VINA RESULT:    -3.355     28.554     29.608
REMARK INTER + INTRA:          -4.091
REMARK INTER:                  -4.119
REMARK INTRA:                   0.028
REMARK UNBOUND:                -0.049
REMARK  Name = 31260
REMARK  5 active torsions:
REMARK  status: ('A' for Active; 'I' for Inactive)
REMARK    1  A    between atoms: O_1  and  C_6
REMARK    2  A    between atoms: C_2  and  C_3
REMARK    3  A    between atoms: C_2  and  C_4
REMARK    4  A    between atoms: C_2  and  C_5
REMARK    5  A    between atoms: C_3  and  C_6
REMARK                            x       y       z     vdW  Elec       q    Type
REMARK                         _______ _______ _______ _____ _____    ______ ____
ROOT
ATOM      1  C   UNL     1     -10.073   9.168  19.302  0.00  0.00    +0.000 C 
ATOM      2  H   UNL     1      -9.353   9.886  19.714  0.00  0.00    +0.000 HD
ENDROOT
BRANCH   1   3
ATOM      3  C   UNL     1     -11.486   9.644  19.645  0.00  0.00    +0.000 C 
ATOM      4  H   UNL     1     -11.769  10.481  18.997  0.00  0.00    +0.000 HD
ATOM      5  H   UNL     1     -11.570   9.998  20.678  0.00  0.00    +0.000 HD
ATOM      6  H   UNL     1     -12.220   8.846  19.491  0.00  0.00    +0.000 HD
ENDBRANCH   1   3
BRANCH   1   7
ATOM      7  C   UNL     1      -9.816   7.805  19.948  0.00  0.00    +0.000 C 
ATOM      8  H   UNL     1      -8.762   7.660  20.203  0.00  0.00    +0.000 HD
ATOM      9  H   UNL     1     -10.101   7.000  19.263  0.00  0.00    +0.000 HD
ATOM     10  H   UNL     1     -10.409   7.692  20.861  0.00  0.00    +0.000 HD
ENDBRANCH   1   7
BRANCH   1  11
ATOM     11  C   UNL     1      -9.888   9.137  17.777  0.00  0.00    +0.000 C 
ATOM     12  H   UNL     1     -10.620   9.805  17.305  0.00  0.00    +0.000 HD
ATOM     13  H   UNL     1     -10.123   8.135  17.396  0.00  0.00    +0.000 HD
BRANCH  11  14
ATOM     14  C   UNL     1      -8.486   9.523  17.321  0.00  0.00    +0.000 C 
ATOM     15  H   UNL     1      -8.455   9.805  16.265  0.00  0.00    +0.000 HD
ATOM     16  H   UNL     1      -8.073  10.342  17.915  0.00  0.00    +0.000 HD
BRANCH  14  17
ATOM     17  O   UNL     1      -7.625   8.404  17.499  0.00  0.00    +0.000 OA
ATOM     18  H   UNL     1      -7.568   8.226  18.453  0.00  0.00    +0.000 HD
ENDBRANCH  14  17
ENDBRANCH  11  14
ENDBRANCH   1  11
TORSDOF 5
ENDMDL
MODEL 5
REMARK VINA RESULT:    -3.355     25.212     25.630
REMARK INTER + INTRA:          -4.091
REMARK INTER:                  -4.052
REMARK INTRA:                  -0.039
REMARK UNBOUND:                -0.049
REMARK  Name = 31260
REMARK  5 active torsions:
REMARK  status: ('A' for Active; 'I' for Inactive)
REMARK    1  A    between atoms: O_1  and  C_6
REMARK    2  A    between atoms: C_2  and  C_3
REMARK    3  A    between atoms: C_2  and  C_4
REMARK    4  A    between atoms: C_2  and  C_5
REMARK    5  A    between atoms: C_3  and  C_6
REMARK                            x       y       z     vdW  Elec       q    Type
REMARK                         _______ _______ _______ _____ _____    ______ ____
ROOT
ATOM      1  C   UNL     1     -20.422  -3.194   5.065  0.00  0.00    +0.000 C 
ATOM      2  H   UNL     1     -19.380  -2.853   5.076  0.00  0.00    +0.000 HD
ENDROOT
BRANCH   1   3
ATOM      3  C   UNL     1     -21.211  -2.317   4.090  0.00  0.00    +0.000 C 
ATOM      4  H   UNL     1     -21.854  -1.624   4.644  0.00  0.00    +0.000 HD
ATOM      5  H   UNL     1     -21.862  -2.902   3.433  0.00  0.00    +0.000 HD
ATOM      6  H   UNL     1     -20.540  -1.715   3.468  0.00  0.00    +0.000 HD
ENDBRANCH   1   3
BRANCH   1   7
ATOM      7  C   UNL     1     -20.994  -3.041   6.475  0.00  0.00    +0.000 C 
ATOM      8  H   UNL     1     -21.283  -2.009   6.696  0.00  0.00    +0.000 HD
ATOM      9  H   UNL     1     -20.251  -3.341   7.221  0.00  0.00    +0.000 HD
ATOM     10  H   UNL     1     -21.875  -3.679   6.607  0.00  0.00    +0.000 HD
ENDBRANCH   1   7
BRANCH   1  11
ATOM     11  C   UNL     1     -20.436  -4.653   4.582  0.00  0.00    +0.000 C 
ATOM     12  H   UNL     1     -20.977  -4.719   3.630  0.00  0.00    +0.000 HD
ATOM     13  H   UNL     1     -21.012  -5.270   5.285  0.00  0.00    +0.000 HD
BRANCH  11  14
ATOM     14  C   UNL     1     -19.048  -5.258   4.418  0.00  0.00    +0.000 C 
ATOM     15  H   UNL     1     -19.057  -6.160   3.799  0.00  0.00    +0.000 HD
ATOM     16  H   UNL     1     -18.339  -4.546   3.989  0.00  0.00    +0.000 HD
BRANCH  14  17
ATOM     17  O   UNL     1     -18.552  -5.617   5.702  0.00  0.00    +0.000 OA
ATOM     18  H   UNL     1     -19.154  -6.283   6.075  0.00  0.00    +0.000 HD
ENDBRANCH  14  17
ENDBRANCH  11  14
ENDBRANCH   1  11
TORSDOF 5
ENDMDL
MODEL 6
REMARK VINA RESULT:    -3.347     25.776     27.221
REMARK INTER + INTRA:          -4.080
REMARK INTER:                  -4.064
REMARK INTRA:                  -0.017
REMARK UNBOUND:                -0.049
REMARK  Name = 31260
REMARK  5 active torsions:
REMARK  status: ('A' for Active; 'I' for Inactive)
REMARK    1  A    between atoms: O_1  and  C_6
REMARK    2  A    between atoms: C_2  and  C_3
REMARK    3  A    between atoms: C_2  and  C_4
REMARK    4  A    between atoms: C_2  and  C_5
REMARK    5  A    between atoms: C_3  and  C_6
REMARK                            x       y       z     vdW  Elec       q    Type
REMARK                         _______ _______ _______ _____ _____    ______ ____
ROOT
ATOM      1  C   UNL     1     -20.470  -1.175   7.026  0.00  0.00    +0.000 C 
ATOM      2  H   UNL     1     -19.426  -1.310   7.335  0.00  0.00    +0.000 HD
ENDROOT
BRANCH   1   3
ATOM      3  C   UNL     1     -21.123  -2.554   6.903  0.00  0.00    +0.000 C 
ATOM      4  H   UNL     1     -20.435  -3.328   7.258  0.00  0.00    +0.000 HD
ATOM      5  H   UNL     1     -21.380  -2.805   5.868  0.00  0.00    +0.000 HD
ATOM      6  H   UNL     1     -22.032  -2.617   7.511  0.00  0.00    +0.000 HD
ENDBRANCH   1   3
BRANCH   1   7
ATOM      7  C   UNL     1     -20.483  -0.475   5.666  0.00  0.00    +0.000 C 
ATOM      8  H   UNL     1     -21.277  -0.851   5.013  0.00  0.00    +0.000 HD
ATOM      9  H   UNL     1     -19.531  -0.632   5.148  0.00  0.00    +0.000 HD
ATOM     10  H   UNL     1     -20.622   0.604   5.787  0.00  0.00    +0.000 HD
ENDBRANCH   1   7
BRANCH   1  11
ATOM     11  C   UNL     1     -21.183  -0.355   8.113  0.00  0.00    +0.000 C 
ATOM     12  H   UNL     1     -21.384   0.656   7.736  0.00  0.00    +0.000 HD
ATOM     13  H   UNL     1     -20.511  -0.215   8.970  0.00  0.00    +0.000 HD
BRANCH  11  14
ATOM     14  C   UNL     1     -22.483  -0.981   8.601  0.00  0.00    +0.000 C 
ATOM     15  H   UNL     1     -23.152  -1.245   7.778  0.00  0.00    +0.000 HD
ATOM     16  H   UNL     1     -22.305  -1.871   9.208  0.00  0.00    +0.000 HD
BRANCH  14  17
ATOM     17  O   UNL     1     -23.159  -0.041   9.428  0.00  0.00    +0.000 OA
ATOM     18  H   UNL     1     -23.874   0.353   8.900  0.00  0.00    +0.000 HD
ENDBRANCH  14  17
ENDBRANCH  11  14
ENDBRANCH   1  11
TORSDOF 5
ENDMDL
MODEL 7
REMARK VINA RESULT:    -3.342     24.974     26.269
REMARK INTER + INTRA:          -4.075
REMARK INTER:                  -4.062
REMARK INTRA:                  -0.014
REMARK UNBOUND:                -0.049
REMARK  Name = 31260
REMARK  5 active torsions:
REMARK  status: ('A' for Active; 'I' for Inactive)
REMARK    1  A    between atoms: O_1  and  C_6
REMARK    2  A    between atoms: C_2  and  C_3
REMARK    3  A    between atoms: C_2  and  C_4
REMARK    4  A    between atoms: C_2  and  C_5
REMARK    5  A    between atoms: C_3  and  C_6
REMARK                            x       y       z     vdW  Elec       q    Type
REMARK                         _______ _______ _______ _____ _____    ______ ____
ROOT
ATOM      1  C   UNL     1     -21.000  -1.026   5.760  0.00  0.00    +0.000 C 
ATOM      2  H   UNL     1     -22.087  -0.882   5.732  0.00  0.00    +0.000 HD
ENDROOT
BRANCH   1   3
ATOM      3  C   UNL     1     -20.334   0.151   5.043  0.00  0.00    +0.000 C 
ATOM      4  H   UNL     1     -20.185  -0.089   3.985  0.00  0.00    +0.000 HD
ATOM      5  H   UNL     1     -19.350   0.391   5.458  0.00  0.00    +0.000 HD
ATOM      6  H   UNL     1     -20.959   1.049   5.092  0.00  0.00    +0.000 HD
ENDBRANCH   1   3
BRANCH   1   7
ATOM      7  C   UNL     1     -20.669  -2.329   5.030  0.00  0.00    +0.000 C 
ATOM      8  H   UNL     1     -20.635  -2.198   3.943  0.00  0.00    +0.000 HD
ATOM      9  H   UNL     1     -21.427  -3.089   5.245  0.00  0.00    +0.000 HD
ATOM     10  H   UNL     1     -19.701  -2.722   5.358  0.00  0.00    +0.000 HD
ENDBRANCH   1   7
BRANCH   1  11
ATOM     11  C   UNL     1     -20.565  -1.054   7.233  0.00  0.00    +0.000 C 
ATOM     12  H   UNL     1     -20.000  -0.143   7.466  0.00  0.00    +0.000 HD
ATOM     13  H   UNL     1     -19.861  -1.881   7.395  0.00  0.00    +0.000 HD
BRANCH  11  14
ATOM     14  C   UNL     1     -21.724  -1.194   8.212  0.00  0.00    +0.000 C 
ATOM     15  H   UNL     1     -22.667  -1.429   7.710  0.00  0.00    +0.000 HD
ATOM     16  H   UNL     1     -21.531  -1.957   8.970  0.00  0.00    +0.000 HD
BRANCH  14  17
ATOM     17  O   UNL     1     -21.893   0.041   8.899  0.00  0.00    +0.000 OA
ATOM     18  H   UNL     1     -21.023   0.473   8.944  0.00  0.00    +0.000 HD
ENDBRANCH  14  17
ENDBRANCH  11  14
ENDBRANCH   1  11
TORSDOF 5
ENDMDL
MODEL 8
REMARK VINA RESULT:    -3.268      7.104      8.259
REMARK INTER + INTRA:          -3.986
REMARK INTER:                  -3.932
REMARK INTRA:                  -0.054
REMARK UNBOUND:                -0.049
REMARK  Name = 31260
REMARK  5 active torsions:
REMARK  status: ('A' for Active; 'I' for Inactive)
REMARK    1  A    between atoms: O_1  and  C_6
REMARK    2  A    between atoms: C_2  and  C_3
REMARK    3  A    between atoms: C_2  and  C_4
REMARK    4  A    between atoms: C_2  and  C_5
REMARK    5  A    between atoms: C_3  and  C_6
REMARK                            x       y       z     vdW  Elec       q    Type
REMARK                         _______ _______ _______ _____ _____    ______ ____
ROOT
ATOM      1  C   UNL     1      -9.426   4.706  -5.111  0.00  0.00    +0.000 C 
ATOM      2  H   UNL     1      -9.361   5.390  -4.255  0.00  0.00    +0.000 HD
ENDROOT
BRANCH   1   3
ATOM      3  C   UNL     1     -10.899   4.534  -5.487  0.00  0.00    +0.000 C 
ATOM      4  H   UNL     1     -11.209   3.496  -5.325  0.00  0.00    +0.000 HD
ATOM      5  H   UNL     1     -11.093   4.765  -6.539  0.00  0.00    +0.000 HD
ATOM      6  H   UNL     1     -11.542   5.169  -4.867  0.00  0.00    +0.000 HD
ENDBRANCH   1   3
BRANCH   1   7
ATOM      7  C   UNL     1      -8.838   3.357  -4.694  0.00  0.00    +0.000 C 
ATOM      8  H   UNL     1      -8.922   2.606  -5.486  0.00  0.00    +0.000 HD
ATOM      9  H   UNL     1      -9.364   2.968  -3.816  0.00  0.00    +0.000 HD
ATOM     10  H   UNL     1      -7.781   3.460  -4.430  0.00  0.00    +0.000 HD
ENDBRANCH   1   7
BRANCH   1  11
ATOM     11  C   UNL     1      -8.659   5.342  -6.282  0.00  0.00    +0.000 C 
ATOM     12  H   UNL     1      -9.325   5.433  -7.149  0.00  0.00    +0.000 HD
ATOM     13  H   UNL     1      -7.853   4.669  -6.605  0.00  0.00    +0.000 HD
BRANCH  11  14
ATOM     14  C   UNL     1      -8.063   6.706  -5.957  0.00  0.00    +0.000 C 
ATOM     15  H   UNL     1      -7.184   6.932  -6.566  0.00  0.00    +0.000 HD
ATOM     16  H   UNL     1      -8.792   7.511  -6.081  0.00  0.00    +0.000 HD
BRANCH  14  17
ATOM     17  O   UNL     1      -7.662   6.715  -4.592  0.00  0.00    +0.000 OA
ATOM     18  H   UNL     1      -7.172   7.540  -4.435  0.00  0.00    +0.000 HD
ENDBRANCH  14  17
ENDBRANCH  11  14
ENDBRANCH   1  11
TORSDOF 5
ENDMDL
MODEL 9
REMARK VINA RESULT:    -3.207     12.611     13.347
REMARK INTER + INTRA:          -3.912
REMARK INTER:                  -3.875
REMARK INTRA:                  -0.037
REMARK UNBOUND:                -0.049
REMARK  Name = 31260
REMARK  5 active torsions:
REMARK  status: ('A' for Active; 'I' for Inactive)
REMARK    1  A    between atoms: O_1  and  C_6
REMARK    2  A    between atoms: C_2  and  C_3
REMARK    3  A    between atoms: C_2  and  C_4
REMARK    4  A    between atoms: C_2  and  C_5
REMARK    5  A    between atoms: C_3  and  C_6
REMARK                            x       y       z     vdW  Elec       q    Type
REMARK                         _______ _______ _______ _____ _____    ______ ____
ROOT
ATOM      1  C   UNL     1       4.339  10.970   0.662  0.00  0.00    +0.000 C 
ATOM      2  H   UNL     1       4.719  11.750   1.334  0.00  0.00    +0.000 HD
ENDROOT
BRANCH   1   3
ATOM      3  C   UNL     1       3.373  11.616  -0.334  0.00  0.00    +0.000 C 
ATOM      4  H   UNL     1       3.570  11.243  -1.345  0.00  0.00    +0.000 HD
ATOM      5  H   UNL     1       3.474  12.705  -0.370  0.00  0.00    +0.000 HD
ATOM      6  H   UNL     1       2.333  11.371  -0.091  0.00  0.00    +0.000 HD
ENDBRANCH   1   3
BRANCH   1   7
ATOM      7  C   UNL     1       3.595   9.931   1.503  0.00  0.00    +0.000 C 
ATOM      8  H   UNL     1       3.149   9.143   0.889  0.00  0.00    +0.000 HD
ATOM      9  H   UNL     1       2.784  10.407   2.065  0.00  0.00    +0.000 HD
ATOM     10  H   UNL     1       4.270   9.462   2.226  0.00  0.00    +0.000 HD
ENDBRANCH   1   7
BRANCH   1  11
ATOM     11  C   UNL     1       5.537  10.367  -0.087  0.00  0.00    +0.000 C 
ATOM     12  H   UNL     1       5.176   9.768  -0.933  0.00  0.00    +0.000 HD
ATOM     13  H   UNL     1       6.062   9.657   0.566  0.00  0.00    +0.000 HD
BRANCH  11  14
ATOM     14  C   UNL     1       6.532  11.405  -0.590  0.00  0.00    +0.000 C 
ATOM     15  H   UNL     1       6.209  12.428  -0.378  0.00  0.00    +0.000 HD
ATOM     16  H   UNL     1       7.528  11.257  -0.166  0.00  0.00    +0.000 HD
BRANCH  14  17
ATOM     17  O   UNL     1       6.656  11.272  -2.001  0.00  0.00    +0.000 OA
ATOM     18  H   UNL     1       5.760  11.187  -2.369  0.00  0.00    +0.000 HD
ENDBRANCH  14  17
ENDBRANCH  11  14
ENDBRANCH   1  11
TORSDOF 5
ENDMDL
MODEL 10
REMARK VINA RESULT:    -3.189     12.960     13.528
REMARK INTER + INTRA:          -3.890
REMARK INTER:                  -3.841
REMARK INTRA:                  -0.049
REMARK UNBOUND:                -0.049
REMARK  Name = 31260
REMARK  5 active torsions:
REMARK  status: ('A' for Active; 'I' for Inactive)
REMARK    1  A    between atoms: O_1  and  C_6
REMARK    2  A    between atoms: C_2  and  C_3
REMARK    3  A    between atoms: C_2  and  C_4
REMARK    4  A    between atoms: C_2  and  C_5
REMARK    5  A    between atoms: C_3  and  C_6
REMARK                            x       y       z     vdW  Elec       q    Type
REMARK                         _______ _______ _______ _____ _____    ______ ____
ROOT
ATOM      1  C   UNL     1       4.223  10.799  -0.526  0.00  0.00    +0.000 C 
ATOM      2  H   UNL     1       4.238  10.584  -1.602  0.00  0.00    +0.000 HD
ENDROOT
BRANCH   1   3
ATOM      3  C   UNL     1       3.186  11.894  -0.264  0.00  0.00    +0.000 C 
ATOM      4  H   UNL     1       3.556  12.587   0.499  0.00  0.00    +0.000 HD
ATOM      5  H   UNL     1       2.236  11.492   0.103  0.00  0.00    +0.000 HD
ATOM      6  H   UNL     1       2.989  12.477  -1.170  0.00  0.00    +0.000 HD
ENDBRANCH   1   3
BRANCH   1   7
ATOM      7  C   UNL     1       5.610  11.293  -0.114  0.00  0.00    +0.000 C 
ATOM      8  H   UNL     1       5.700  11.423   0.969  0.00  0.00    +0.000 HD
ATOM      9  H   UNL     1       5.822  12.262  -0.578  0.00  0.00    +0.000 HD
ATOM     10  H   UNL     1       6.384  10.591  -0.440  0.00  0.00    +0.000 HD
ENDBRANCH   1   7
BRANCH   1  11
ATOM     11  C   UNL     1       3.819   9.510   0.207  0.00  0.00    +0.000 C 
ATOM     12  H   UNL     1       4.253   8.644  -0.308  0.00  0.00    +0.000 HD
ATOM     13  H   UNL     1       2.732   9.372   0.140  0.00  0.00    +0.000 HD
BRANCH  11  14
ATOM     14  C   UNL     1       4.230   9.484   1.674  0.00  0.00    +0.000 C 
ATOM     15  H   UNL     1       4.659   8.522   1.969  0.00  0.00    +0.000 HD
ATOM     16  H   UNL     1       4.946  10.274   1.912  0.00  0.00    +0.000 HD
BRANCH  14  17
ATOM     17  O   UNL     1       3.077   9.712   2.475  0.00  0.00    +0.000 OA
ATOM     18  H   UNL     1       3.203   9.237   3.314  0.00  0.00    +0.000 HD
ENDBRANCH  14  17
ENDBRANCH  11  14
ENDBRANCH   1  11
TORSDOF 5
ENDMDL
