MODEL 1
REMARK VINA RESULT:    -4.372      0.000      0.000
REMARK INTER + INTRA:          -6.158
REMARK INTER:                  -5.979
REMARK INTRA:                  -0.179
REMARK UNBOUND:                -0.253
REMARK  Name = 246728
REMARK  7 active torsions:
REMARK  status: ('A' for Active; 'I' for Inactive)
REMARK    1  A    between atoms: C_2  and  C_3
REMARK    2  A    between atoms: C_2  and  C_4
REMARK    3  A    between atoms: C_3  and  C_5
REMARK    4  A    between atoms: C_4  and  C_6
REMARK    5  A    between atoms: C_5  and  C_8
REMARK    6  A    between atoms: C_6  and  C_7
REMARK    7  A    between atoms: C_7  and  C_9
REMARK                            x       y       z     vdW  Elec       q    Type
REMARK                         _______ _______ _______ _____ _____    ______ ____
ROOT
ATOM      1  C   UNL     1       5.646   8.629   1.153  0.00  0.00    +0.000 C 
ATOM      2  H   UNL     1       5.583   7.748   0.503  0.00  0.00    +0.000 HD
ATOM      3  H   UNL     1       6.158   9.409   0.573  0.00  0.00    +0.000 HD
ENDROOT
BRANCH   1   4
ATOM      4  C   UNL     1       6.474   8.295   2.398  0.00  0.00    +0.000 C 
ATOM      5  H   UNL     1       7.511   8.089   2.105  0.00  0.00    +0.000 HD
ATOM      6  H   UNL     1       6.494   9.165   3.067  0.00  0.00    +0.000 HD
BRANCH   4   7
ATOM      7  C   UNL     1       5.897   7.089   3.140  0.00  0.00    +0.000 C 
ATOM      8  H   UNL     1       6.200   6.163   2.637  0.00  0.00    +0.000 HD
ATOM      9  H   UNL     1       4.802   7.126   3.118  0.00  0.00    +0.000 HD
BRANCH   7  10
ATOM     10  C   UNL     1       6.365   7.050   4.585  0.00  0.00    +0.000 C 
ATOM     11  H   UNL     1       7.396   6.684   4.639  0.00  0.00    +0.000 HD
ATOM     12  H   UNL     1       6.336   8.049   5.035  0.00  0.00    +0.000 HD
ATOM     13  H   UNL     1       5.737   6.384   5.185  0.00  0.00    +0.000 HD
ENDBRANCH   7  10
ENDBRANCH   4   7
ENDBRANCH   1   4
BRANCH   1  14
ATOM     14  C   UNL     1       4.234   9.101   1.502  0.00  0.00    +0.000 C 
ATOM     15  H   UNL     1       3.503   8.359   1.162  0.00  0.00    +0.000 HD
ATOM     16  H   UNL     1       4.143   9.203   2.589  0.00  0.00    +0.000 HD
BRANCH  14  18
ATOM     17  O   UNL     1       3.212  11.289   1.493  0.00  0.00    +0.000 OA
ATOM     18  C   UNL     1       3.861  10.440   0.883  0.00  0.00    +0.000 C 
BRANCH  18  19
ATOM     19  C   UNL     1       4.312  10.644  -0.554  0.00  0.00    +0.000 C 
ATOM     20  H   UNL     1       5.171  11.322  -0.549  0.00  0.00    +0.000 HD
ATOM     21  H   UNL     1       4.631   9.676  -0.953  0.00  0.00    +0.000 HD
BRANCH  19  22
ATOM     22  C   UNL     1       3.217  11.217  -1.437  0.00  0.00    +0.000 C 
ATOM     23  H   UNL     1       2.232  11.093  -0.974  0.00  0.00    +0.000 HD
ATOM     24  H   UNL     1       3.195  10.716  -2.411  0.00  0.00    +0.000 HD
ATOM     25  H   UNL     1       3.384  12.285  -1.606  0.00  0.00    +0.000 HD
ENDBRANCH  19  22
ENDBRANCH  18  19
ENDBRANCH  14  18
ENDBRANCH   1  14
TORSDOF 7
ENDMDL
MODEL 2
REMARK VINA RESULT:    -4.330      2.009      3.123
REMARK INTER + INTRA:          -6.101
REMARK INTER:                  -5.702
REMARK INTRA:                  -0.398
REMARK UNBOUND:                -0.253
REMARK  Name = 246728
REMARK  7 active torsions:
REMARK  status: ('A' for Active; 'I' for Inactive)
REMARK    1  A    between atoms: C_2  and  C_3
REMARK    2  A    between atoms: C_2  and  C_4
REMARK    3  A    between atoms: C_3  and  C_5
REMARK    4  A    between atoms: C_4  and  C_6
REMARK    5  A    between atoms: C_5  and  C_8
REMARK    6  A    between atoms: C_6  and  C_7
REMARK    7  A    between atoms: C_7  and  C_9
REMARK                            x       y       z     vdW  Elec       q    Type
REMARK                         _______ _______ _______ _____ _____    ______ ____
ROOT
ATOM      1  C   UNL     1       5.971   9.029   0.800  0.00  0.00    +0.000 C 
ATOM      2  H   UNL     1       6.302  10.018   1.140  0.00  0.00    +0.000 HD
ATOM      3  H   UNL     1       6.078   8.352   1.659  0.00  0.00    +0.000 HD
ENDROOT
BRANCH   1   4
ATOM      4  C   UNL     1       6.872   8.546  -0.341  0.00  0.00    +0.000 C 
ATOM      5  H   UNL     1       7.380   7.621  -0.042  0.00  0.00    +0.000 HD
ATOM      6  H   UNL     1       6.255   8.309  -1.217  0.00  0.00    +0.000 HD
BRANCH   4   7
ATOM      7  C   UNL     1       7.909   9.607  -0.715  0.00  0.00    +0.000 C 
ATOM      8  H   UNL     1       8.592   9.208  -1.474  0.00  0.00    +0.000 HD
ATOM      9  H   UNL     1       8.513   9.863   0.162  0.00  0.00    +0.000 HD
BRANCH   7  10
ATOM     10  C   UNL     1       7.246  10.866  -1.249  0.00  0.00    +0.000 C 
ATOM     11  H   UNL     1       6.191  10.891  -0.958  0.00  0.00    +0.000 HD
ATOM     12  H   UNL     1       7.730  11.764  -0.849  0.00  0.00    +0.000 HD
ATOM     13  H   UNL     1       7.298  10.905  -2.342  0.00  0.00    +0.000 HD
ENDBRANCH   7  10
ENDBRANCH   4   7
ENDBRANCH   1   4
BRANCH   1  14
ATOM     14  C   UNL     1       4.500   9.102   0.390  0.00  0.00    +0.000 C 
ATOM     15  H   UNL     1       4.426   9.230  -0.696  0.00  0.00    +0.000 HD
ATOM     16  H   UNL     1       4.000   8.167   0.663  0.00  0.00    +0.000 HD
BRANCH  14  18
ATOM     17  O   UNL     1       3.212  10.132   2.154  0.00  0.00    +0.000 OA
ATOM     18  C   UNL     1       3.734  10.242   1.046  0.00  0.00    +0.000 C 
BRANCH  18  19
ATOM     19  C   UNL     1       3.624  11.515   0.222  0.00  0.00    +0.000 C 
ATOM     20  H   UNL     1       2.800  12.112   0.625  0.00  0.00    +0.000 HD
ATOM     21  H   UNL     1       4.555  12.078   0.338  0.00  0.00    +0.000 HD
BRANCH  19  22
ATOM     22  C   UNL     1       3.380  11.241  -1.251  0.00  0.00    +0.000 C 
ATOM     23  H   UNL     1       2.323  11.026  -1.442  0.00  0.00    +0.000 HD
ATOM     24  H   UNL     1       3.964  10.379  -1.593  0.00  0.00    +0.000 HD
ATOM     25  H   UNL     1       3.667  12.108  -1.853  0.00  0.00    +0.000 HD
ENDBRANCH  19  22
ENDBRANCH  18  19
ENDBRANCH  14  18
ENDBRANCH   1  14
TORSDOF 7
ENDMDL
MODEL 3
REMARK VINA RESULT:    -4.198     13.279     14.442
REMARK INTER + INTRA:          -5.923
REMARK INTER:                  -5.488
REMARK INTRA:                  -0.435
REMARK UNBOUND:                -0.253
REMARK  Name = 246728
REMARK  7 active torsions:
REMARK  status: ('A' for Active; 'I' for Inactive)
REMARK    1  A    between atoms: C_2  and  C_3
REMARK    2  A    between atoms: C_2  and  C_4
REMARK    3  A    between atoms: C_3  and  C_5
REMARK    4  A    between atoms: C_4  and  C_6
REMARK    5  A    between atoms: C_5  and  C_8
REMARK    6  A    between atoms: C_6  and  C_7
REMARK    7  A    between atoms: C_7  and  C_9
REMARK                            x       y       z     vdW  Elec       q    Type
REMARK                         _______ _______ _______ _____ _____    ______ ____
ROOT
ATOM      1  C   UNL     1      -2.484   9.707 -10.282  0.00  0.00    +0.000 C 
ATOM      2  H   UNL     1      -3.158  10.571 -10.251  0.00  0.00    +0.000 HD
ATOM      3  H   UNL     1      -2.903   9.010 -11.020  0.00  0.00    +0.000 HD
ENDROOT
BRANCH   1   4
ATOM      4  C   UNL     1      -2.447   9.030  -8.908  0.00  0.00    +0.000 C 
ATOM      5  H   UNL     1      -1.417   8.744  -8.666  0.00  0.00    +0.000 HD
ATOM      6  H   UNL     1      -2.775   9.743  -8.142  0.00  0.00    +0.000 HD
BRANCH   4   7
ATOM      7  C   UNL     1      -3.347   7.793  -8.876  0.00  0.00    +0.000 C 
ATOM      8  H   UNL     1      -4.395   8.092  -9.007  0.00  0.00    +0.000 HD
ATOM      9  H   UNL     1      -3.270   7.300  -7.901  0.00  0.00    +0.000 HD
BRANCH   7  10
ATOM     10  C   UNL     1      -2.969   6.803  -9.966  0.00  0.00    +0.000 C 
ATOM     11  H   UNL     1      -3.705   6.833 -10.776  0.00  0.00    +0.000 HD
ATOM     12  H   UNL     1      -1.988   7.040 -10.389  0.00  0.00    +0.000 HD
ATOM     13  H   UNL     1      -2.938   5.781  -9.575  0.00  0.00    +0.000 HD
ENDBRANCH   7  10
ENDBRANCH   4   7
ENDBRANCH   1   4
BRANCH   1  14
ATOM     14  C   UNL     1      -1.100  10.163 -10.743  0.00  0.00    +0.000 C 
ATOM     15  H   UNL     1      -1.051  11.258 -10.735  0.00  0.00    +0.000 HD
ATOM     16  H   UNL     1      -0.341   9.779 -10.053  0.00  0.00    +0.000 HD
BRANCH  14  18
ATOM     17  O   UNL     1      -0.645  10.463 -13.096  0.00  0.00    +0.000 OA
ATOM     18  C   UNL     1      -0.729   9.691 -12.142  0.00  0.00    +0.000 C 
BRANCH  18  19
ATOM     19  C   UNL     1      -0.506   8.195 -12.289  0.00  0.00    +0.000 C 
ATOM     20  H   UNL     1       0.527   8.034 -12.615  0.00  0.00    +0.000 HD
ATOM     21  H   UNL     1      -0.641   7.731 -11.307  0.00  0.00    +0.000 HD
BRANCH  19  22
ATOM     22  C   UNL     1      -1.457   7.555 -13.285  0.00  0.00    +0.000 C 
ATOM     23  H   UNL     1      -0.917   6.912 -13.988  0.00  0.00    +0.000 HD
ATOM     24  H   UNL     1      -1.988   8.316 -13.867  0.00  0.00    +0.000 HD
ATOM     25  H   UNL     1      -2.200   6.943 -12.764  0.00  0.00    +0.000 HD
ENDBRANCH  19  22
ENDBRANCH  18  19
ENDBRANCH  14  18
ENDBRANCH   1  14
TORSDOF 7
ENDMDL
MODEL 4
REMARK VINA RESULT:    -4.041     27.595     28.339
REMARK INTER + INTRA:          -5.712
REMARK INTER:                  -5.435
REMARK INTRA:                  -0.277
REMARK UNBOUND:                -0.253
REMARK  Name = 246728
REMARK  7 active torsions:
REMARK  status: ('A' for Active; 'I' for Inactive)
REMARK    1  A    between atoms: C_2  and  C_3
REMARK    2  A    between atoms: C_2  and  C_4
REMARK    3  A    between atoms: C_3  and  C_5
REMARK    4  A    between atoms: C_4  and  C_6
REMARK    5  A    between atoms: C_5  and  C_8
REMARK    6  A    between atoms: C_6  and  C_7
REMARK    7  A    between atoms: C_7  and  C_9
REMARK                            x       y       z     vdW  Elec       q    Type
REMARK                         _______ _______ _______ _____ _____    ______ ____
ROOT
ATOM      1  C   UNL     1     -21.172  -3.350   4.095  0.00  0.00    +0.000 C 
ATOM      2  H   UNL     1     -20.837  -3.618   3.086  0.00  0.00    +0.000 HD
ATOM      3  H   UNL     1     -22.215  -3.682   4.176  0.00  0.00    +0.000 HD
ENDROOT
BRANCH   1   4
ATOM      4  C   UNL     1     -21.106  -1.831   4.275  0.00  0.00    +0.000 C 
ATOM      5  H   UNL     1     -20.131  -1.462   3.936  0.00  0.00    +0.000 HD
ATOM      6  H   UNL     1     -21.870  -1.356   3.647  0.00  0.00    +0.000 HD
BRANCH   4   7
ATOM      7  C   UNL     1     -21.327  -1.436   5.737  0.00  0.00    +0.000 C 
ATOM      8  H   UNL     1     -21.236  -2.321   6.379  0.00  0.00    +0.000 HD
ATOM      9  H   UNL     1     -22.342  -1.044   5.868  0.00  0.00    +0.000 HD
BRANCH   7  10
ATOM     10  C   UNL     1     -20.325  -0.386   6.186  0.00  0.00    +0.000 C 
ATOM     11  H   UNL     1     -20.670   0.097   7.106  0.00  0.00    +0.000 HD
ATOM     12  H   UNL     1     -19.347  -0.836   6.384  0.00  0.00    +0.000 HD
ATOM     13  H   UNL     1     -20.199   0.389   5.423  0.00  0.00    +0.000 HD
ENDBRANCH   7  10
ENDBRANCH   4   7
ENDBRANCH   1   4
BRANCH   1  14
ATOM     14  C   UNL     1     -20.320  -4.096   5.123  0.00  0.00    +0.000 C 
ATOM     15  H   UNL     1     -19.779  -3.375   5.746  0.00  0.00    +0.000 HD
ATOM     16  H   UNL     1     -20.972  -4.692   5.772  0.00  0.00    +0.000 HD
BRANCH  14  18
ATOM     17  O   UNL     1     -18.450  -5.623   5.183  0.00  0.00    +0.000 OA
ATOM     18  C   UNL     1     -19.297  -5.040   4.508  0.00  0.00    +0.000 C 
BRANCH  18  19
ATOM     19  C   UNL     1     -19.370  -5.188   2.997  0.00  0.00    +0.000 C 
ATOM     20  H   UNL     1     -19.714  -6.202   2.769  0.00  0.00    +0.000 HD
ATOM     21  H   UNL     1     -20.108  -4.473   2.618  0.00  0.00    +0.000 HD
BRANCH  19  22
ATOM     22  C   UNL     1     -18.034  -4.941   2.319  0.00  0.00    +0.000 C 
ATOM     23  H   UNL     1     -17.966  -3.913   1.946  0.00  0.00    +0.000 HD
ATOM     24  H   UNL     1     -17.894  -5.615   1.466  0.00  0.00    +0.000 HD
ATOM     25  H   UNL     1     -17.212  -5.104   3.022  0.00  0.00    +0.000 HD
ENDBRANCH  19  22
ENDBRANCH  18  19
ENDBRANCH  14  18
ENDBRANCH   1  14
TORSDOF 7
ENDMDL
MODEL 5
REMARK VINA RESULT:    -4.008     13.175     14.871
REMARK INTER + INTRA:          -5.667
REMARK INTER:                  -5.340
REMARK INTRA:                  -0.327
REMARK UNBOUND:                -0.253
REMARK  Name = 246728
REMARK  7 active torsions:
REMARK  status: ('A' for Active; 'I' for Inactive)
REMARK    1  A    between atoms: C_2  and  C_3
REMARK    2  A    between atoms: C_2  and  C_4
REMARK    3  A    between atoms: C_3  and  C_5
REMARK    4  A    between atoms: C_4  and  C_6
REMARK    5  A    between atoms: C_5  and  C_8
REMARK    6  A    between atoms: C_6  and  C_7
REMARK    7  A    between atoms: C_7  and  C_9
REMARK                            x       y       z     vdW  Elec       q    Type
REMARK                         _______ _______ _______ _____ _____    ______ ____
ROOT
ATOM      1  C   UNL     1      -1.773   6.801 -11.497  0.00  0.00    +0.000 C 
ATOM      2  H   UNL     1      -0.954   7.139 -10.850  0.00  0.00    +0.000 HD
ATOM      3  H   UNL     1      -1.765   5.703 -11.461  0.00  0.00    +0.000 HD
ENDROOT
BRANCH   1   4
ATOM      4  C   UNL     1      -1.519   7.263 -12.935  0.00  0.00    +0.000 C 
ATOM      5  H   UNL     1      -0.671   6.710 -13.356  0.00  0.00    +0.000 HD
ATOM      6  H   UNL     1      -2.396   7.030 -13.553  0.00  0.00    +0.000 HD
BRANCH   4   7
ATOM      7  C   UNL     1      -1.236   8.765 -12.992  0.00  0.00    +0.000 C 
ATOM      8  H   UNL     1      -1.222   9.180 -11.977  0.00  0.00    +0.000 HD
ATOM      9  H   UNL     1      -2.037   9.276 -13.540  0.00  0.00    +0.000 HD
BRANCH   7  10
ATOM     10  C   UNL     1       0.093   9.054 -13.670  0.00  0.00    +0.000 C 
ATOM     11  H   UNL     1       0.148  10.108 -13.962  0.00  0.00    +0.000 HD
ATOM     12  H   UNL     1       0.931   8.843 -12.998  0.00  0.00    +0.000 HD
ATOM     13  H   UNL     1       0.215   8.446 -14.573  0.00  0.00    +0.000 HD
ENDBRANCH   7  10
ENDBRANCH   4   7
ENDBRANCH   1   4
BRANCH   1  14
ATOM     14  C   UNL     1      -3.100   7.318 -10.944  0.00  0.00    +0.000 C 
ATOM     15  H   UNL     1      -3.307   8.314 -11.352  0.00  0.00    +0.000 HD
ATOM     16  H   UNL     1      -3.909   6.645 -11.250  0.00  0.00    +0.000 HD
BRANCH  14  18
ATOM     17  O   UNL     1      -3.467   6.476  -8.710  0.00  0.00    +0.000 OA
ATOM     18  C   UNL     1      -3.138   7.421  -9.426  0.00  0.00    +0.000 C 
BRANCH  18  19
ATOM     19  C   UNL     1      -2.776   8.782  -8.854  0.00  0.00    +0.000 C 
ATOM     20  H   UNL     1      -3.436   8.982  -8.004  0.00  0.00    +0.000 HD
ATOM     21  H   UNL     1      -1.743   8.738  -8.494  0.00  0.00    +0.000 HD
BRANCH  19  22
ATOM     22  C   UNL     1      -2.908   9.900  -9.873  0.00  0.00    +0.000 C 
ATOM     23  H   UNL     1      -2.105  10.635  -9.757  0.00  0.00    +0.000 HD
ATOM     24  H   UNL     1      -3.863  10.427  -9.757  0.00  0.00    +0.000 HD
ATOM     25  H   UNL     1      -2.861   9.499 -10.889  0.00  0.00    +0.000 HD
ENDBRANCH  19  22
ENDBRANCH  18  19
ENDBRANCH  14  18
ENDBRANCH   1  14
TORSDOF 7
ENDMDL
MODEL 6
REMARK VINA RESULT:    -3.989     13.587     14.843
REMARK INTER + INTRA:          -5.641
REMARK INTER:                  -5.109
REMARK INTRA:                  -0.532
REMARK UNBOUND:                -0.253
REMARK  Name = 246728
REMARK  7 active torsions:
REMARK  status: ('A' for Active; 'I' for Inactive)
REMARK    1  A    between atoms: C_2  and  C_3
REMARK    2  A    between atoms: C_2  and  C_4
REMARK    3  A    between atoms: C_3  and  C_5
REMARK    4  A    between atoms: C_4  and  C_6
REMARK    5  A    between atoms: C_5  and  C_8
REMARK    6  A    between atoms: C_6  and  C_7
REMARK    7  A    between atoms: C_7  and  C_9
REMARK                            x       y       z     vdW  Elec       q    Type
REMARK                         _______ _______ _______ _____ _____    ______ ____
ROOT
ATOM      1  C   UNL     1      -1.382  10.010 -10.650  0.00  0.00    +0.000 C 
ATOM      2  H   UNL     1      -1.435  11.085 -10.860  0.00  0.00    +0.000 HD
ATOM      3  H   UNL     1      -0.856   9.905  -9.692  0.00  0.00    +0.000 HD
ENDROOT
BRANCH   1   4
ATOM      4  C   UNL     1      -0.579   9.307 -11.749  0.00  0.00    +0.000 C 
ATOM      5  H   UNL     1       0.428   9.737 -11.801  0.00  0.00    +0.000 HD
ATOM      6  H   UNL     1      -0.466   8.246 -11.496  0.00  0.00    +0.000 HD
BRANCH   4   7
ATOM      7  C   UNL     1      -1.268   9.440 -13.108  0.00  0.00    +0.000 C 
ATOM      8  H   UNL     1      -0.938  10.361 -13.604  0.00  0.00    +0.000 HD
ATOM      9  H   UNL     1      -2.353   9.516 -12.972  0.00  0.00    +0.000 HD
BRANCH   7  10
ATOM     10  C   UNL     1      -0.961   8.251 -14.005  0.00  0.00    +0.000 C 
ATOM     11  H   UNL     1      -1.563   7.387 -13.706  0.00  0.00    +0.000 HD
ATOM     12  H   UNL     1      -1.189   8.479 -15.051  0.00  0.00    +0.000 HD
ATOM     13  H   UNL     1       0.094   7.969 -13.936  0.00  0.00    +0.000 HD
ENDBRANCH   7  10
ENDBRANCH   4   7
ENDBRANCH   1   4
BRANCH   1  14
ATOM     14  C   UNL     1      -2.799   9.452 -10.516  0.00  0.00    +0.000 C 
ATOM     15  H   UNL     1      -3.478  10.246 -10.187  0.00  0.00    +0.000 HD
ATOM     16  H   UNL     1      -3.140   9.087 -11.491  0.00  0.00    +0.000 HD
BRANCH  14  18
ATOM     17  O   UNL     1      -2.988   8.481  -8.313  0.00  0.00    +0.000 OA
ATOM     18  C   UNL     1      -2.917   8.301  -9.527  0.00  0.00    +0.000 C 
BRANCH  18  19
ATOM     19  C   UNL     1      -2.905   6.910 -10.140  0.00  0.00    +0.000 C 
ATOM     20  H   UNL     1      -1.864   6.582 -10.223  0.00  0.00    +0.000 HD
ATOM     21  H   UNL     1      -3.433   6.232  -9.461  0.00  0.00    +0.000 HD
BRANCH  19  22
ATOM     22  C   UNL     1      -3.562   6.865 -11.508  0.00  0.00    +0.000 C 
ATOM     23  H   UNL     1      -3.615   7.865 -11.952  0.00  0.00    +0.000 HD
ATOM     24  H   UNL     1      -4.584   6.474 -11.442  0.00  0.00    +0.000 HD
ATOM     25  H   UNL     1      -2.993   6.221 -12.184  0.00  0.00    +0.000 HD
ENDBRANCH  19  22
ENDBRANCH  18  19
ENDBRANCH  14  18
ENDBRANCH   1  14
TORSDOF 7
ENDMDL
MODEL 7
REMARK VINA RESULT:    -3.946      2.277      3.829
REMARK INTER + INTRA:          -5.583
REMARK INTER:                  -5.124
REMARK INTRA:                  -0.460
REMARK UNBOUND:                -0.253
REMARK  Name = 246728
REMARK  7 active torsions:
REMARK  status: ('A' for Active; 'I' for Inactive)
REMARK    1  A    between atoms: C_2  and  C_3
REMARK    2  A    between atoms: C_2  and  C_4
REMARK    3  A    between atoms: C_3  and  C_5
REMARK    4  A    between atoms: C_4  and  C_6
REMARK    5  A    between atoms: C_5  and  C_8
REMARK    6  A    between atoms: C_6  and  C_7
REMARK    7  A    between atoms: C_7  and  C_9
REMARK                            x       y       z     vdW  Elec       q    Type
REMARK                         _______ _______ _______ _____ _____    ______ ____
ROOT
ATOM      1  C   UNL     1       7.458   9.363   1.034  0.00  0.00    +0.000 C 
ATOM      2  H   UNL     1       6.863  10.285   1.031  0.00  0.00    +0.000 HD
ATOM      3  H   UNL     1       8.294   9.534   1.725  0.00  0.00    +0.000 HD
ENDROOT
BRANCH   1   4
ATOM      4  C   UNL     1       8.007   9.098  -0.372  0.00  0.00    +0.000 C 
ATOM      5  H   UNL     1       9.046   8.754  -0.302  0.00  0.00    +0.000 HD
ATOM      6  H   UNL     1       7.430   8.293  -0.843  0.00  0.00    +0.000 HD
BRANCH   4   7
ATOM      7  C   UNL     1       7.936  10.356  -1.240  0.00  0.00    +0.000 C 
ATOM      8  H   UNL     1       7.827  10.074  -2.294  0.00  0.00    +0.000 HD
ATOM      9  H   UNL     1       8.870  10.924  -1.151  0.00  0.00    +0.000 HD
BRANCH   7  10
ATOM     10  C   UNL     1       6.772  11.246  -0.835  0.00  0.00    +0.000 C 
ATOM     11  H   UNL     1       7.073  12.298  -0.862  0.00  0.00    +0.000 HD
ATOM     12  H   UNL     1       5.924  11.117  -1.515  0.00  0.00    +0.000 HD
ATOM     13  H   UNL     1       6.436  11.015   0.181  0.00  0.00    +0.000 HD
ENDBRANCH   7  10
ENDBRANCH   4   7
ENDBRANCH   1   4
BRANCH   1  14
ATOM     14  C   UNL     1       6.599   8.209   1.550  0.00  0.00    +0.000 C 
ATOM     15  H   UNL     1       6.514   7.438   0.777  0.00  0.00    +0.000 HD
ATOM     16  H   UNL     1       7.078   7.765   2.430  0.00  0.00    +0.000 HD
BRANCH  14  18
ATOM     17  O   UNL     1       4.812   8.616   3.124  0.00  0.00    +0.000 OA
ATOM     18  C   UNL     1       5.190   8.621   1.953  0.00  0.00    +0.000 C 
BRANCH  18  19
ATOM     19  C   UNL     1       4.269   9.007   0.807  0.00  0.00    +0.000 C 
ATOM     20  H   UNL     1       4.850   8.981  -0.120  0.00  0.00    +0.000 HD
ATOM     21  H   UNL     1       3.472   8.259   0.743  0.00  0.00    +0.000 HD
BRANCH  19  22
ATOM     22  C   UNL     1       3.657  10.385   0.985  0.00  0.00    +0.000 C 
ATOM     23  H   UNL     1       4.433  11.151   1.085  0.00  0.00    +0.000 HD
ATOM     24  H   UNL     1       3.030  10.424   1.883  0.00  0.00    +0.000 HD
ATOM     25  H   UNL     1       3.034  10.640   0.122  0.00  0.00    +0.000 HD
ENDBRANCH  19  22
ENDBRANCH  18  19
ENDBRANCH  14  18
ENDBRANCH   1  14
TORSDOF 7
ENDMDL
MODEL 8
REMARK VINA RESULT:    -3.944     13.480     14.810
REMARK INTER + INTRA:          -5.581
REMARK INTER:                  -5.102
REMARK INTRA:                  -0.479
REMARK UNBOUND:                -0.253
REMARK  Name = 246728
REMARK  7 active torsions:
REMARK  status: ('A' for Active; 'I' for Inactive)
REMARK    1  A    between atoms: C_2  and  C_3
REMARK    2  A    between atoms: C_2  and  C_4
REMARK    3  A    between atoms: C_3  and  C_5
REMARK    4  A    between atoms: C_4  and  C_6
REMARK    5  A    between atoms: C_5  and  C_8
REMARK    6  A    between atoms: C_6  and  C_7
REMARK    7  A    between atoms: C_7  and  C_9
REMARK                            x       y       z     vdW  Elec       q    Type
REMARK                         _______ _______ _______ _____ _____    ______ ____
ROOT
ATOM      1  C   UNL     1      -3.386   7.252 -10.445  0.00  0.00    +0.000 C 
ATOM      2  H   UNL     1      -3.725   8.104 -11.046  0.00  0.00    +0.000 HD
ATOM      3  H   UNL     1      -4.182   6.498 -10.496  0.00  0.00    +0.000 HD
ENDROOT
BRANCH   1   4
ATOM      4  C   UNL     1      -3.193   7.689  -8.990  0.00  0.00    +0.000 C 
ATOM      5  H   UNL     1      -4.167   7.735  -8.488  0.00  0.00    +0.000 HD
ATOM      6  H   UNL     1      -2.591   6.940  -8.461  0.00  0.00    +0.000 HD
BRANCH   4   7
ATOM      7  C   UNL     1      -2.505   9.052  -8.908  0.00  0.00    +0.000 C 
ATOM      8  H   UNL     1      -1.426   8.934  -9.067  0.00  0.00    +0.000 HD
ATOM      9  H   UNL     1      -2.640   9.479  -7.907  0.00  0.00    +0.000 HD
BRANCH   7  10
ATOM     10  C   UNL     1      -3.061  10.019  -9.941  0.00  0.00    +0.000 C 
ATOM     11  H   UNL     1      -4.110   9.786 -10.150  0.00  0.00    +0.000 HD
ATOM     12  H   UNL     1      -3.007  11.051  -9.582  0.00  0.00    +0.000 HD
ATOM     13  H   UNL     1      -2.505   9.952 -10.881  0.00  0.00    +0.000 HD
ENDBRANCH   7  10
ENDBRANCH   4   7
ENDBRANCH   1   4
BRANCH   1  14
ATOM     14  C   UNL     1      -2.106   6.681 -11.056  0.00  0.00    +0.000 C 
ATOM     15  H   UNL     1      -1.275   6.805 -10.352  0.00  0.00    +0.000 HD
ATOM     16  H   UNL     1      -2.240   5.611 -11.247  0.00  0.00    +0.000 HD
BRANCH  14  18
ATOM     17  O   UNL     1      -2.309   7.128 -13.421  0.00  0.00    +0.000 OA
ATOM     18  C   UNL     1      -1.704   7.336 -12.370  0.00  0.00    +0.000 C 
BRANCH  18  19
ATOM     19  C   UNL     1      -0.482   8.237 -12.304  0.00  0.00    +0.000 C 
ATOM     20  H   UNL     1      -0.138   8.270 -11.265  0.00  0.00    +0.000 HD
ATOM     21  H   UNL     1       0.305   7.792 -12.921  0.00  0.00    +0.000 HD
BRANCH  19  22
ATOM     22  C   UNL     1      -0.766   9.647 -12.789  0.00  0.00    +0.000 C 
ATOM     23  H   UNL     1      -1.014  10.309 -11.952  0.00  0.00    +0.000 HD
ATOM     24  H   UNL     1      -1.610   9.661 -13.488  0.00  0.00    +0.000 HD
ATOM     25  H   UNL     1       0.109  10.058 -13.302  0.00  0.00    +0.000 HD
ENDBRANCH  19  22
ENDBRANCH  18  19
ENDBRANCH  14  18
ENDBRANCH   1  14
TORSDOF 7
ENDMDL
MODEL 9
REMARK VINA RESULT:    -3.909      2.574      3.594
REMARK INTER + INTRA:          -5.532
REMARK INTER:                  -5.030
REMARK INTRA:                  -0.502
REMARK UNBOUND:                -0.253
REMARK  Name = 246728
REMARK  7 active torsions:
REMARK  status: ('A' for Active; 'I' for Inactive)
REMARK    1  A    between atoms: C_2  and  C_3
REMARK    2  A    between atoms: C_2  and  C_4
REMARK    3  A    between atoms: C_3  and  C_5
REMARK    4  A    between atoms: C_4  and  C_6
REMARK    5  A    between atoms: C_5  and  C_8
REMARK    6  A    between atoms: C_6  and  C_7
REMARK    7  A    between atoms: C_7  and  C_9
REMARK                            x       y       z     vdW  Elec       q    Type
REMARK                         _______ _______ _______ _____ _____    ______ ____
ROOT
ATOM      1  C   UNL     1       6.551   7.980   1.983  0.00  0.00    +0.000 C 
ATOM      2  H   UNL     1       6.212   7.153   1.347  0.00  0.00    +0.000 HD
ATOM      3  H   UNL     1       7.207   7.539   2.745  0.00  0.00    +0.000 HD
ENDROOT
BRANCH   1   4
ATOM      4  C   UNL     1       5.346   8.633   2.668  0.00  0.00    +0.000 C 
ATOM      5  H   UNL     1       5.116   8.097   3.597  0.00  0.00    +0.000 HD
ATOM      6  H   UNL     1       5.598   9.664   2.943  0.00  0.00    +0.000 HD
BRANCH   4   7
ATOM      7  C   UNL     1       4.120   8.630   1.753  0.00  0.00    +0.000 C 
ATOM      8  H   UNL     1       3.290   8.108   2.244  0.00  0.00    +0.000 HD
ATOM      9  H   UNL     1       4.345   8.084   0.829  0.00  0.00    +0.000 HD
BRANCH   7  10
ATOM     10  C   UNL     1       3.686  10.044   1.402  0.00  0.00    +0.000 C 
ATOM     11  H   UNL     1       4.501  10.577   0.902  0.00  0.00    +0.000 HD
ATOM     12  H   UNL     1       2.823  10.033   0.729  0.00  0.00    +0.000 HD
ATOM     13  H   UNL     1       3.414  10.606   2.301  0.00  0.00    +0.000 HD
ENDBRANCH   7  10
ENDBRANCH   4   7
ENDBRANCH   1   4
BRANCH   1  14
ATOM     14  C   UNL     1       7.349   8.973   1.138  0.00  0.00    +0.000 C 
ATOM     15  H   UNL     1       7.068   9.997   1.409  0.00  0.00    +0.000 HD
ATOM     16  H   UNL     1       8.418   8.844   1.338  0.00  0.00    +0.000 HD
BRANCH  14  18
ATOM     17  O   UNL     1       6.978   7.715  -0.891  0.00  0.00    +0.000 OA
ATOM     18  C   UNL     1       7.140   8.814  -0.361  0.00  0.00    +0.000 C 
BRANCH  18  19
ATOM     19  C   UNL     1       7.180  10.103  -1.166  0.00  0.00    +0.000 C 
ATOM     20  H   UNL     1       8.219  10.292  -1.455  0.00  0.00    +0.000 HD
ATOM     21  H   UNL     1       6.584   9.958  -2.073  0.00  0.00    +0.000 HD
BRANCH  19  22
ATOM     22  C   UNL     1       6.643  11.294  -0.394  0.00  0.00    +0.000 C 
ATOM     23  H   UNL     1       6.748  12.218  -0.972  0.00  0.00    +0.000 HD
ATOM     24  H   UNL     1       7.183  11.427   0.550  0.00  0.00    +0.000 HD
ATOM     25  H   UNL     1       5.582  11.153  -0.164  0.00  0.00    +0.000 HD
ENDBRANCH  19  22
ENDBRANCH  18  19
ENDBRANCH  14  18
ENDBRANCH   1  14
TORSDOF 7
ENDMDL
MODEL 10
REMARK VINA RESULT:    -3.871     14.092     14.825
REMARK INTER + INTRA:          -5.481
REMARK INTER:                  -5.229
REMARK INTRA:                  -0.253
REMARK UNBOUND:                -0.253
REMARK  Name = 246728
REMARK  7 active torsions:
REMARK  status: ('A' for Active; 'I' for Inactive)
REMARK    1  A    between atoms: C_2  and  C_3
REMARK    2  A    between atoms: C_2  and  C_4
REMARK    3  A    between atoms: C_3  and  C_5
REMARK    4  A    between atoms: C_4  and  C_6
REMARK    5  A    between atoms: C_5  and  C_8
REMARK    6  A    between atoms: C_6  and  C_7
REMARK    7  A    between atoms: C_7  and  C_9
REMARK                            x       y       z     vdW  Elec       q    Type
REMARK                         _______ _______ _______ _____ _____    ______ ____
ROOT
ATOM      1  C   UNL     1      -2.353   6.824 -11.883  0.00  0.00    +0.000 C 
ATOM      2  H   UNL     1      -3.168   7.320 -12.425  0.00  0.00    +0.000 HD
ATOM      3  H   UNL     1      -2.224   5.838 -12.348  0.00  0.00    +0.000 HD
ENDROOT
BRANCH   1   4
ATOM      4  C   UNL     1      -2.745   6.644 -10.413  0.00  0.00    +0.000 C 
ATOM      5  H   UNL     1      -2.430   5.652 -10.067  0.00  0.00    +0.000 HD
ATOM      6  H   UNL     1      -2.216   7.384  -9.801  0.00  0.00    +0.000 HD
BRANCH   4   7
ATOM      7  C   UNL     1      -4.254   6.802 -10.219  0.00  0.00    +0.000 C 
ATOM      8  H   UNL     1      -4.790   6.195 -10.958  0.00  0.00    +0.000 HD
ATOM      9  H   UNL     1      -4.545   7.846 -10.385  0.00  0.00    +0.000 HD
BRANCH   7  10
ATOM     10  C   UNL     1      -4.682   6.383  -8.822  0.00  0.00    +0.000 C 
ATOM     11  H   UNL     1      -4.364   5.354  -8.622  0.00  0.00    +0.000 HD
ATOM     12  H   UNL     1      -4.231   7.030  -8.062  0.00  0.00    +0.000 HD
ATOM     13  H   UNL     1      -5.770   6.429  -8.712  0.00  0.00    +0.000 HD
ENDBRANCH   7  10
ENDBRANCH   4   7
ENDBRANCH   1   4
BRANCH   1  14
ATOM     14  C   UNL     1      -1.069   7.637 -12.048  0.00  0.00    +0.000 C 
ATOM     15  H   UNL     1      -0.439   7.514 -11.160  0.00  0.00    +0.000 HD
ATOM     16  H   UNL     1      -0.515   7.269 -12.918  0.00  0.00    +0.000 HD
BRANCH  14  18
ATOM     17  O   UNL     1      -1.652   9.599 -13.330  0.00  0.00    +0.000 OA
ATOM     18  C   UNL     1      -1.304   9.127 -12.248  0.00  0.00    +0.000 C 
BRANCH  18  19
ATOM     19  C   UNL     1      -1.045   9.999 -11.031  0.00  0.00    +0.000 C 
ATOM     20  H   UNL     1      -0.155   9.617 -10.520  0.00  0.00    +0.000 HD
ATOM     21  H   UNL     1      -0.841  11.018 -11.376  0.00  0.00    +0.000 HD
BRANCH  19  22
ATOM     22  C   UNL     1      -2.215  10.019 -10.064  0.00  0.00    +0.000 C 
ATOM     23  H   UNL     1      -2.367   9.035  -9.608  0.00  0.00    +0.000 HD
ATOM     24  H   UNL     1      -3.144  10.298 -10.575  0.00  0.00    +0.000 HD
ATOM     25  H   UNL     1      -2.037  10.743  -9.263  0.00  0.00    +0.000 HD
ENDBRANCH  19  22
ENDBRANCH  18  19
ENDBRANCH  14  18
ENDBRANCH   1  14
TORSDOF 7
ENDMDL
