MODEL 1
REMARK VINA RESULT:    -4.359      0.000      0.000
REMARK INTER + INTRA:          -6.234
REMARK INTER:                  -6.054
REMARK INTRA:                  -0.180
REMARK UNBOUND:                -0.219
REMARK  Name = 11527
REMARK  8 active torsions:
REMARK  status: ('A' for Active; 'I' for Inactive)
REMARK    1  A    between atoms: O_1  and  C_4
REMARK    2  A    between atoms: C_2  and  C_3
REMARK    3  A    between atoms: C_2  and  C_4
REMARK    4  A    between atoms: C_3  and  C_5
REMARK    5  A    between atoms: C_4  and  C_6
REMARK    6  A    between atoms: C_5  and  C_7
REMARK    7  A    between atoms: C_6  and  C_8
REMARK    8  A    between atoms: C_7  and  C_9
REMARK                            x       y       z     vdW  Elec       q    Type
REMARK                         _______ _______ _______ _____ _____    ______ ____
ROOT
ATOM      1  C   UNL     1     -20.404  -4.595   4.331  0.00  0.00    +0.000 C 
ATOM      2  H   UNL     1     -21.316  -5.205   4.296  0.00  0.00    +0.000 HD
ATOM      3  H   UNL     1     -20.408  -4.014   3.400  0.00  0.00    +0.000 HD
ENDROOT
BRANCH   1   4
ATOM      4  C   UNL     1     -20.464  -3.636   5.526  0.00  0.00    +0.000 C 
ATOM      5  H   UNL     1     -19.453  -3.289   5.771  0.00  0.00    +0.000 HD
ATOM      6  H   UNL     1     -20.856  -4.155   6.408  0.00  0.00    +0.000 HD
BRANCH   4   7
ATOM      7  C   UNL     1     -21.362  -2.434   5.222  0.00  0.00    +0.000 C 
ATOM      8  H   UNL     1     -22.257  -2.479   5.856  0.00  0.00    +0.000 HD
ATOM      9  H   UNL     1     -21.709  -2.497   4.182  0.00  0.00    +0.000 HD
BRANCH   7  10
ATOM     10  C   UNL     1     -20.667  -1.087   5.436  0.00  0.00    +0.000 C 
ATOM     11  H   UNL     1     -19.813  -1.008   4.755  0.00  0.00    +0.000 HD
ATOM     12  H   UNL     1     -21.359  -0.277   5.176  0.00  0.00    +0.000 HD
BRANCH  10  13
ATOM     13  C   UNL     1     -20.182  -0.877   6.862  0.00  0.00    +0.000 C 
ATOM     14  H   UNL     1     -19.123  -0.599   6.866  0.00  0.00    +0.000 HD
ATOM     15  H   UNL     1     -20.297  -1.790   7.453  0.00  0.00    +0.000 HD
ATOM     16  H   UNL     1     -20.745  -0.077   7.352  0.00  0.00    +0.000 HD
ENDBRANCH  10  13
ENDBRANCH   7  10
ENDBRANCH   4   7
ENDBRANCH   1   4
BRANCH   1  17
ATOM     17  C   UNL     1     -19.179  -5.521   4.322  0.00  0.00    +0.000 C 
ATOM     18  H   UNL     1     -19.509  -6.548   4.121  0.00  0.00    +0.000 HD
BRANCH  17  19
ATOM     19  C   UNL     1     -18.128  -5.124   3.280  0.00  0.00    +0.000 C 
ATOM     20  H   UNL     1     -17.440  -5.961   3.111  0.00  0.00    +0.000 HD
ATOM     21  H   UNL     1     -17.537  -4.273   3.632  0.00  0.00    +0.000 HD
BRANCH  19  22
ATOM     22  C   UNL     1     -18.760  -4.752   1.944  0.00  0.00    +0.000 C 
ATOM     23  H   UNL     1     -18.053  -4.900   1.121  0.00  0.00    +0.000 HD
ATOM     24  H   UNL     1     -19.636  -5.379   1.755  0.00  0.00    +0.000 HD
ATOM     25  H   UNL     1     -19.089  -3.708   1.933  0.00  0.00    +0.000 HD
ENDBRANCH  19  22
ENDBRANCH  17  19
BRANCH  17  26
ATOM     26  O   UNL     1     -18.572  -5.526   5.613  0.00  0.00    +0.000 OA
ATOM     27  H   UNL     1     -19.157  -6.022   6.211  0.00  0.00    +0.000 HD
ENDBRANCH  17  26
ENDBRANCH   1  17
TORSDOF 8
ENDMDL
MODEL 2
REMARK VINA RESULT:    -4.301     24.489     25.995
REMARK INTER + INTRA:          -6.155
REMARK INTER:                  -5.610
REMARK INTRA:                  -0.545
REMARK UNBOUND:                -0.219
REMARK  Name = 11527
REMARK  8 active torsions:
REMARK  status: ('A' for Active; 'I' for Inactive)
REMARK    1  A    between atoms: O_1  and  C_4
REMARK    2  A    between atoms: C_2  and  C_3
REMARK    3  A    between atoms: C_2  and  C_4
REMARK    4  A    between atoms: C_3  and  C_5
REMARK    5  A    between atoms: C_4  and  C_6
REMARK    6  A    between atoms: C_5  and  C_7
REMARK    7  A    between atoms: C_6  and  C_8
REMARK    8  A    between atoms: C_7  and  C_9
REMARK                            x       y       z     vdW  Elec       q    Type
REMARK                         _______ _______ _______ _____ _____    ______ ____
ROOT
ATOM      1  C   UNL     1      -2.824   9.708  -9.576  0.00  0.00    +0.000 C 
ATOM      2  H   UNL     1      -3.788   9.994 -10.016  0.00  0.00    +0.000 HD
ATOM      3  H   UNL     1      -2.495  10.584  -9.002  0.00  0.00    +0.000 HD
ENDROOT
BRANCH   1   4
ATOM      4  C   UNL     1      -3.019   8.523  -8.621  0.00  0.00    +0.000 C 
ATOM      5  H   UNL     1      -3.961   8.644  -8.072  0.00  0.00    +0.000 HD
ATOM      6  H   UNL     1      -2.209   8.495  -7.883  0.00  0.00    +0.000 HD
BRANCH   4   7
ATOM      7  C   UNL     1      -3.035   7.197  -9.387  0.00  0.00    +0.000 C 
ATOM      8  H   UNL     1      -2.421   6.461  -8.851  0.00  0.00    +0.000 HD
ATOM      9  H   UNL     1      -2.567   7.343 -10.369  0.00  0.00    +0.000 HD
BRANCH   7  10
ATOM     10  C   UNL     1      -4.441   6.626  -9.582  0.00  0.00    +0.000 C 
ATOM     11  H   UNL     1      -4.458   5.582  -9.247  0.00  0.00    +0.000 HD
ATOM     12  H   UNL     1      -5.146   7.175  -8.947  0.00  0.00    +0.000 HD
BRANCH  10  13
ATOM     13  C   UNL     1      -4.926   6.688 -11.021  0.00  0.00    +0.000 C 
ATOM     14  H   UNL     1      -4.543   7.588 -11.513  0.00  0.00    +0.000 HD
ATOM     15  H   UNL     1      -6.019   6.715 -11.064  0.00  0.00    +0.000 HD
ATOM     16  H   UNL     1      -4.581   5.818 -11.588  0.00  0.00    +0.000 HD
ENDBRANCH  10  13
ENDBRANCH   7  10
ENDBRANCH   4   7
ENDBRANCH   1   4
BRANCH   1  17
ATOM     17  C   UNL     1      -1.811   9.453 -10.701  0.00  0.00    +0.000 C 
ATOM     18  H   UNL     1      -1.473   8.410 -10.648  0.00  0.00    +0.000 HD
BRANCH  17  19
ATOM     19  C   UNL     1      -2.381   9.719 -12.099  0.00  0.00    +0.000 C 
ATOM     20  H   UNL     1      -2.220   8.841 -12.737  0.00  0.00    +0.000 HD
ATOM     21  H   UNL     1      -1.873  10.568 -12.567  0.00  0.00    +0.000 HD
BRANCH  19  22
ATOM     22  C   UNL     1      -3.875  10.012 -12.061  0.00  0.00    +0.000 C 
ATOM     23  H   UNL     1      -4.069  11.003 -11.635  0.00  0.00    +0.000 HD
ATOM     24  H   UNL     1      -4.288   9.993 -13.074  0.00  0.00    +0.000 HD
ATOM     25  H   UNL     1      -4.416   9.269 -11.467  0.00  0.00    +0.000 HD
ENDBRANCH  19  22
ENDBRANCH  17  19
BRANCH  17  26
ATOM     26  O   UNL     1      -0.660  10.272 -10.507  0.00  0.00    +0.000 OA
ATOM     27  H   UNL     1      -0.072   9.809  -9.886  0.00  0.00    +0.000 HD
ENDBRANCH  17  26
ENDBRANCH   1  17
TORSDOF 8
ENDMDL
MODEL 3
REMARK VINA RESULT:    -4.256     28.250     29.164
REMARK INTER + INTRA:          -6.093
REMARK INTER:                  -5.571
REMARK INTRA:                  -0.522
REMARK UNBOUND:                -0.219
REMARK  Name = 11527
REMARK  8 active torsions:
REMARK  status: ('A' for Active; 'I' for Inactive)
REMARK    1  A    between atoms: O_1  and  C_4
REMARK    2  A    between atoms: C_2  and  C_3
REMARK    3  A    between atoms: C_2  and  C_4
REMARK    4  A    between atoms: C_3  and  C_5
REMARK    5  A    between atoms: C_4  and  C_6
REMARK    6  A    between atoms: C_5  and  C_7
REMARK    7  A    between atoms: C_6  and  C_8
REMARK    8  A    between atoms: C_7  and  C_9
REMARK                            x       y       z     vdW  Elec       q    Type
REMARK                         _______ _______ _______ _____ _____    ______ ____
ROOT
ATOM      1  C   UNL     1       4.343   9.063   0.321  0.00  0.00    +0.000 C 
ATOM      2  H   UNL     1       3.787   9.105  -0.625  0.00  0.00    +0.000 HD
ATOM      3  H   UNL     1       3.821   8.314   0.931  0.00  0.00    +0.000 HD
ENDROOT
BRANCH   1   4
ATOM      4  C   UNL     1       5.779   8.590   0.060  0.00  0.00    +0.000 C 
ATOM      5  H   UNL     1       6.046   8.782  -0.986  0.00  0.00    +0.000 HD
ATOM      6  H   UNL     1       5.858   7.510   0.227  0.00  0.00    +0.000 HD
BRANCH   4   7
ATOM      7  C   UNL     1       6.769   9.306   0.984  0.00  0.00    +0.000 C 
ATOM      8  H   UNL     1       7.163   8.590   1.717  0.00  0.00    +0.000 HD
ATOM      9  H   UNL     1       6.237  10.080   1.552  0.00  0.00    +0.000 HD
BRANCH   7  10
ATOM     10  C   UNL     1       7.940   9.949   0.238  0.00  0.00    +0.000 C 
ATOM     11  H   UNL     1       8.422  10.688   0.887  0.00  0.00    +0.000 HD
ATOM     12  H   UNL     1       8.691   9.183   0.014  0.00  0.00    +0.000 HD
BRANCH  10  13
ATOM     13  C   UNL     1       7.531  10.628  -1.060  0.00  0.00    +0.000 C 
ATOM     14  H   UNL     1       8.397  10.736  -1.722  0.00  0.00    +0.000 HD
ATOM     15  H   UNL     1       7.122  11.624  -0.868  0.00  0.00    +0.000 HD
ATOM     16  H   UNL     1       6.772  10.041  -1.586  0.00  0.00    +0.000 HD
ENDBRANCH  10  13
ENDBRANCH   7  10
ENDBRANCH   4   7
ENDBRANCH   1   4
BRANCH   1  17
ATOM     17  C   UNL     1       4.242  10.423   1.025  0.00  0.00    +0.000 C 
ATOM     18  H   UNL     1       5.139  10.574   1.639  0.00  0.00    +0.000 HD
BRANCH  17  19
ATOM     19  C   UNL     1       4.103  11.599   0.053  0.00  0.00    +0.000 C 
ATOM     20  H   UNL     1       5.094  12.014  -0.171  0.00  0.00    +0.000 HD
ATOM     21  H   UNL     1       3.501  12.398   0.497  0.00  0.00    +0.000 HD
BRANCH  19  22
ATOM     22  C   UNL     1       3.455  11.181  -1.261  0.00  0.00    +0.000 C 
ATOM     23  H   UNL     1       4.096  11.435  -2.112  0.00  0.00    +0.000 HD
ATOM     24  H   UNL     1       3.291  10.100  -1.272  0.00  0.00    +0.000 HD
ATOM     25  H   UNL     1       2.485  11.667  -1.403  0.00  0.00    +0.000 HD
ENDBRANCH  19  22
ENDBRANCH  17  19
BRANCH  17  26
ATOM     26  O   UNL     1       3.127  10.423   1.914  0.00  0.00    +0.000 OA
ATOM     27  H   UNL     1       2.561   9.669   1.675  0.00  0.00    +0.000 HD
ENDBRANCH  17  26
ENDBRANCH   1  17
TORSDOF 8
ENDMDL
MODEL 4
REMARK VINA RESULT:    -4.256     17.526     18.670
REMARK INTER + INTRA:          -6.092
REMARK INTER:                  -5.966
REMARK INTRA:                  -0.126
REMARK UNBOUND:                -0.219
REMARK  Name = 11527
REMARK  8 active torsions:
REMARK  status: ('A' for Active; 'I' for Inactive)
REMARK    1  A    between atoms: O_1  and  C_4
REMARK    2  A    between atoms: C_2  and  C_3
REMARK    3  A    between atoms: C_2  and  C_4
REMARK    4  A    between atoms: C_3  and  C_5
REMARK    5  A    between atoms: C_4  and  C_6
REMARK    6  A    between atoms: C_5  and  C_7
REMARK    7  A    between atoms: C_6  and  C_8
REMARK    8  A    between atoms: C_7  and  C_9
REMARK                            x       y       z     vdW  Elec       q    Type
REMARK                         _______ _______ _______ _____ _____    ______ ____
ROOT
ATOM      1  C   UNL     1      -9.189   6.957  -6.065  0.00  0.00    +0.000 C 
ATOM      2  H   UNL     1      -9.552   6.387  -6.931  0.00  0.00    +0.000 HD
ATOM      3  H   UNL     1      -8.325   7.524  -6.434  0.00  0.00    +0.000 HD
ENDROOT
BRANCH   1   4
ATOM      4  C   UNL     1     -10.272   7.934  -5.592  0.00  0.00    +0.000 C 
ATOM      5  H   UNL     1     -10.068   8.239  -4.559  0.00  0.00    +0.000 HD
ATOM      6  H   UNL     1     -11.253   7.446  -5.604  0.00  0.00    +0.000 HD
BRANCH   4   7
ATOM      7  C   UNL     1     -10.326   9.172  -6.494  0.00  0.00    +0.000 C 
ATOM      8  H   UNL     1      -9.539   9.874  -6.193  0.00  0.00    +0.000 HD
ATOM      9  H   UNL     1     -11.284   9.686  -6.342  0.00  0.00    +0.000 HD
BRANCH   7  10
ATOM     10  C   UNL     1     -10.164   8.847  -7.980  0.00  0.00    +0.000 C 
ATOM     11  H   UNL     1      -9.109   8.638  -8.193  0.00  0.00    +0.000 HD
ATOM     12  H   UNL     1     -10.723   7.933  -8.215  0.00  0.00    +0.000 HD
BRANCH  10  13
ATOM     13  C   UNL     1     -10.639   9.961  -8.900  0.00  0.00    +0.000 C 
ATOM     14  H   UNL     1      -9.813  10.640  -9.133  0.00  0.00    +0.000 HD
ATOM     15  H   UNL     1     -11.437  10.543  -8.428  0.00  0.00    +0.000 HD
ATOM     16  H   UNL     1     -11.021   9.554  -9.841  0.00  0.00    +0.000 HD
ENDBRANCH  10  13
ENDBRANCH   7  10
ENDBRANCH   4   7
ENDBRANCH   1   4
BRANCH   1  17
ATOM     17  C   UNL     1      -8.705   5.977  -4.986  0.00  0.00    +0.000 C 
ATOM     18  H   UNL     1      -9.489   5.868  -4.226  0.00  0.00    +0.000 HD
BRANCH  17  19
ATOM     19  C   UNL     1      -8.355   4.592  -5.539  0.00  0.00    +0.000 C 
ATOM     20  H   UNL     1      -7.267   4.453  -5.527  0.00  0.00    +0.000 HD
ATOM     21  H   UNL     1      -8.691   4.495  -6.577  0.00  0.00    +0.000 HD
BRANCH  19  22
ATOM     22  C   UNL     1      -8.987   3.473  -4.722  0.00  0.00    +0.000 C 
ATOM     23  H   UNL     1      -8.424   3.294  -3.800  0.00  0.00    +0.000 HD
ATOM     24  H   UNL     1     -10.011   3.741  -4.446  0.00  0.00    +0.000 HD
ATOM     25  H   UNL     1      -9.029   2.536  -5.287  0.00  0.00    +0.000 HD
ENDBRANCH  19  22
ENDBRANCH  17  19
BRANCH  17  26
ATOM     26  O   UNL     1      -7.561   6.516  -4.327  0.00  0.00    +0.000 OA
ATOM     27  H   UNL     1      -6.842   6.566  -4.980  0.00  0.00    +0.000 HD
ENDBRANCH  17  26
ENDBRANCH   1  17
TORSDOF 8
ENDMDL
MODEL 5
REMARK VINA RESULT:    -4.149     25.367     26.955
REMARK INTER + INTRA:          -5.945
REMARK INTER:                  -5.418
REMARK INTRA:                  -0.526
REMARK UNBOUND:                -0.219
REMARK  Name = 11527
REMARK  8 active torsions:
REMARK  status: ('A' for Active; 'I' for Inactive)
REMARK    1  A    between atoms: O_1  and  C_4
REMARK    2  A    between atoms: C_2  and  C_3
REMARK    3  A    between atoms: C_2  and  C_4
REMARK    4  A    between atoms: C_3  and  C_5
REMARK    5  A    between atoms: C_4  and  C_6
REMARK    6  A    between atoms: C_5  and  C_7
REMARK    7  A    between atoms: C_6  and  C_8
REMARK    8  A    between atoms: C_7  and  C_9
REMARK                            x       y       z     vdW  Elec       q    Type
REMARK                         _______ _______ _______ _____ _____    ______ ____
ROOT
ATOM      1  C   UNL     1      -2.889   9.461 -10.477  0.00  0.00    +0.000 C 
ATOM      2  H   UNL     1      -3.553  10.278 -10.164  0.00  0.00    +0.000 HD
ATOM      3  H   UNL     1      -3.142   9.269 -11.528  0.00  0.00    +0.000 HD
ENDROOT
BRANCH   1   4
ATOM      4  C   UNL     1      -1.426   9.913 -10.383  0.00  0.00    +0.000 C 
ATOM      5  H   UNL     1      -0.849   9.176  -9.813  0.00  0.00    +0.000 HD
ATOM      6  H   UNL     1      -1.359  10.868  -9.850  0.00  0.00    +0.000 HD
BRANCH   4   7
ATOM      7  C   UNL     1      -0.813  10.082 -11.777  0.00  0.00    +0.000 C 
ATOM      8  H   UNL     1      -0.034  10.855 -11.739  0.00  0.00    +0.000 HD
ATOM      9  H   UNL     1      -1.584  10.444 -12.468  0.00  0.00    +0.000 HD
BRANCH   7  10
ATOM     10  C   UNL     1      -0.207   8.791 -12.333  0.00  0.00    +0.000 C 
ATOM     11  H   UNL     1       0.870   8.781 -12.134  0.00  0.00    +0.000 HD
ATOM     12  H   UNL     1      -0.637   7.932 -11.805  0.00  0.00    +0.000 HD
BRANCH  10  13
ATOM     13  C   UNL     1      -0.433   8.611 -13.826  0.00  0.00    +0.000 C 
ATOM     14  H   UNL     1      -0.518   7.547 -14.072  0.00  0.00    +0.000 HD
ATOM     15  H   UNL     1       0.399   9.028 -14.400  0.00  0.00    +0.000 HD
ATOM     16  H   UNL     1      -1.354   9.108 -14.145  0.00  0.00    +0.000 HD
ENDBRANCH  10  13
ENDBRANCH   7  10
ENDBRANCH   4   7
ENDBRANCH   1   4
BRANCH   1  17
ATOM     17  C   UNL     1      -3.217   8.204  -9.659  0.00  0.00    +0.000 C 
ATOM     18  H   UNL     1      -4.298   8.172  -9.472  0.00  0.00    +0.000 HD
BRANCH  17  19
ATOM     19  C   UNL     1      -2.795   6.904 -10.351  0.00  0.00    +0.000 C 
ATOM     20  H   UNL     1      -3.206   6.045  -9.807  0.00  0.00    +0.000 HD
ATOM     21  H   UNL     1      -1.705   6.806 -10.355  0.00  0.00    +0.000 HD
BRANCH  19  22
ATOM     22  C   UNL     1      -3.289   6.836 -11.791  0.00  0.00    +0.000 C 
ATOM     23  H   UNL     1      -3.595   5.818 -12.053  0.00  0.00    +0.000 HD
ATOM     24  H   UNL     1      -4.154   7.494 -11.923  0.00  0.00    +0.000 HD
ATOM     25  H   UNL     1      -2.516   7.157 -12.497  0.00  0.00    +0.000 HD
ENDBRANCH  19  22
ENDBRANCH  17  19
BRANCH  17  26
ATOM     26  O   UNL     1      -2.579   8.280  -8.386  0.00  0.00    +0.000 OA
ATOM     27  H   UNL     1      -1.622   8.358  -8.541  0.00  0.00    +0.000 HD
ENDBRANCH  17  26
ENDBRANCH   1  17
TORSDOF 8
ENDMDL
MODEL 6
REMARK VINA RESULT:    -4.095     29.270     30.039
REMARK INTER + INTRA:          -5.870
REMARK INTER:                  -5.652
REMARK INTRA:                  -0.218
REMARK UNBOUND:                -0.219
REMARK  Name = 11527
REMARK  8 active torsions:
REMARK  status: ('A' for Active; 'I' for Inactive)
REMARK    1  A    between atoms: O_1  and  C_4
REMARK    2  A    between atoms: C_2  and  C_3
REMARK    3  A    between atoms: C_2  and  C_4
REMARK    4  A    between atoms: C_3  and  C_5
REMARK    5  A    between atoms: C_4  and  C_6
REMARK    6  A    between atoms: C_5  and  C_7
REMARK    7  A    between atoms: C_6  and  C_8
REMARK    8  A    between atoms: C_7  and  C_9
REMARK                            x       y       z     vdW  Elec       q    Type
REMARK                         _______ _______ _______ _____ _____    ______ ____
ROOT
ATOM      1  C   UNL     1       6.503   9.743   0.099  0.00  0.00    +0.000 C 
ATOM      2  H   UNL     1       6.728  10.107   1.110  0.00  0.00    +0.000 HD
ATOM      3  H   UNL     1       6.867   8.708   0.075  0.00  0.00    +0.000 HD
ENDROOT
BRANCH   1   4
ATOM      4  C   UNL     1       4.987   9.751  -0.132  0.00  0.00    +0.000 C 
ATOM      5  H   UNL     1       4.602   8.726  -0.087  0.00  0.00    +0.000 HD
ATOM      6  H   UNL     1       4.758  10.145  -1.129  0.00  0.00    +0.000 HD
BRANCH   4   7
ATOM      7  C   UNL     1       4.277  10.616   0.913  0.00  0.00    +0.000 C 
ATOM      8  H   UNL     1       5.025  11.099   1.554  0.00  0.00    +0.000 HD
ATOM      9  H   UNL     1       3.672   9.971   1.564  0.00  0.00    +0.000 HD
BRANCH   7  10
ATOM     10  C   UNL     1       3.377  11.692   0.301  0.00  0.00    +0.000 C 
ATOM     11  H   UNL     1       2.425  11.721   0.843  0.00  0.00    +0.000 HD
ATOM     12  H   UNL     1       3.847  12.674   0.429  0.00  0.00    +0.000 HD
BRANCH  10  13
ATOM     13  C   UNL     1       3.094  11.475  -1.178  0.00  0.00    +0.000 C 
ATOM     14  H   UNL     1       4.004  11.158  -1.697  0.00  0.00    +0.000 HD
ATOM     15  H   UNL     1       2.737  12.397  -1.647  0.00  0.00    +0.000 HD
ATOM     16  H   UNL     1       2.333  10.701  -1.320  0.00  0.00    +0.000 HD
ENDBRANCH  10  13
ENDBRANCH   7  10
ENDBRANCH   4   7
ENDBRANCH   1   4
BRANCH   1  17
ATOM     17  C   UNL     1       7.304  10.566  -0.922  0.00  0.00    +0.000 C 
ATOM     18  H   UNL     1       7.777  11.410  -0.407  0.00  0.00    +0.000 HD
BRANCH  17  19
ATOM     19  C   UNL     1       8.386   9.752  -1.639  0.00  0.00    +0.000 C 
ATOM     20  H   UNL     1       8.301   9.896  -2.723  0.00  0.00    +0.000 HD
ATOM     21  H   UNL     1       8.263   8.683  -1.435  0.00  0.00    +0.000 HD
BRANCH  19  22
ATOM     22  C   UNL     1       9.789  10.165  -1.213  0.00  0.00    +0.000 C 
ATOM     23  H   UNL     1       9.821  10.401  -0.144  0.00  0.00    +0.000 HD
ATOM     24  H   UNL     1      10.494   9.350  -1.400  0.00  0.00    +0.000 HD
ATOM     25  H   UNL     1      10.137  11.041  -1.770  0.00  0.00    +0.000 HD
ENDBRANCH  19  22
ENDBRANCH  17  19
BRANCH  17  26
ATOM     26  O   UNL     1       6.418  11.117  -1.894  0.00  0.00    +0.000 OA
ATOM     27  H   UNL     1       6.936  11.291  -2.698  0.00  0.00    +0.000 HD
ENDBRANCH  17  26
ENDBRANCH   1  17
TORSDOF 8
ENDMDL
MODEL 7
REMARK VINA RESULT:    -4.065     28.528     29.283
REMARK INTER + INTRA:          -5.830
REMARK INTER:                  -5.373
REMARK INTRA:                  -0.457
REMARK UNBOUND:                -0.219
REMARK  Name = 11527
REMARK  8 active torsions:
REMARK  status: ('A' for Active; 'I' for Inactive)
REMARK    1  A    between atoms: O_1  and  C_4
REMARK    2  A    between atoms: C_2  and  C_3
REMARK    3  A    between atoms: C_2  and  C_4
REMARK    4  A    between atoms: C_3  and  C_5
REMARK    5  A    between atoms: C_4  and  C_6
REMARK    6  A    between atoms: C_5  and  C_7
REMARK    7  A    between atoms: C_6  and  C_8
REMARK    8  A    between atoms: C_7  and  C_9
REMARK                            x       y       z     vdW  Elec       q    Type
REMARK                         _______ _______ _______ _____ _____    ______ ____
ROOT
ATOM      1  C   UNL     1       5.678   8.970   1.352  0.00  0.00    +0.000 C 
ATOM      2  H   UNL     1       5.560   9.424   2.344  0.00  0.00    +0.000 HD
ATOM      3  H   UNL     1       5.730   7.888   1.533  0.00  0.00    +0.000 HD
ENDROOT
BRANCH   1   4
ATOM      4  C   UNL     1       4.451   9.280   0.486  0.00  0.00    +0.000 C 
ATOM      5  H   UNL     1       3.861   8.367   0.342  0.00  0.00    +0.000 HD
ATOM      6  H   UNL     1       4.765   9.629  -0.504  0.00  0.00    +0.000 HD
BRANCH   4   7
ATOM      7  C   UNL     1       3.579  10.359   1.136  0.00  0.00    +0.000 C 
ATOM      8  H   UNL     1       4.064  10.712   2.055  0.00  0.00    +0.000 HD
ATOM      9  H   UNL     1       2.620   9.916   1.434  0.00  0.00    +0.000 HD
BRANCH   7  10
ATOM     10  C   UNL     1       3.314  11.556   0.221  0.00  0.00    +0.000 C 
ATOM     11  H   UNL     1       2.302  11.936   0.405  0.00  0.00    +0.000 HD
ATOM     12  H   UNL     1       4.008  12.366   0.474  0.00  0.00    +0.000 HD
BRANCH  10  13
ATOM     13  C   UNL     1       3.456  11.232  -1.258  0.00  0.00    +0.000 C 
ATOM     14  H   UNL     1       4.330  10.595  -1.425  0.00  0.00    +0.000 HD
ATOM     15  H   UNL     1       3.582  12.146  -1.847  0.00  0.00    +0.000 HD
ATOM     16  H   UNL     1       2.573  10.703  -1.629  0.00  0.00    +0.000 HD
ENDBRANCH  10  13
ENDBRANCH   7  10
ENDBRANCH   4   7
ENDBRANCH   1   4
BRANCH   1  17
ATOM     17  C   UNL     1       7.013   9.426   0.745  0.00  0.00    +0.000 C 
ATOM     18  H   UNL     1       7.301   8.728  -0.051  0.00  0.00    +0.000 HD
BRANCH  17  19
ATOM     19  C   UNL     1       6.960  10.843   0.164  0.00  0.00    +0.000 C 
ATOM     20  H   UNL     1       7.671  11.488   0.695  0.00  0.00    +0.000 HD
ATOM     21  H   UNL     1       5.961  11.275   0.291  0.00  0.00    +0.000 HD
BRANCH  19  22
ATOM     22  C   UNL     1       7.310  10.868  -1.318  0.00  0.00    +0.000 C 
ATOM     23  H   UNL     1       6.904   9.991  -1.832  0.00  0.00    +0.000 HD
ATOM     24  H   UNL     1       6.889  11.761  -1.789  0.00  0.00    +0.000 HD
ATOM     25  H   UNL     1       8.393  10.889  -1.475  0.00  0.00    +0.000 HD
ENDBRANCH  19  22
ENDBRANCH  17  19
BRANCH  17  26
ATOM     26  O   UNL     1       8.036   9.370   1.737  0.00  0.00    +0.000 OA
ATOM     27  H   UNL     1       8.736   9.991   1.472  0.00  0.00    +0.000 HD
ENDBRANCH  17  26
ENDBRANCH   1  17
TORSDOF 8
ENDMDL
MODEL 8
REMARK VINA RESULT:    -3.974     25.967     27.409
REMARK INTER + INTRA:          -5.704
REMARK INTER:                  -5.484
REMARK INTRA:                  -0.219
REMARK UNBOUND:                -0.219
REMARK  Name = 11527
REMARK  8 active torsions:
REMARK  status: ('A' for Active; 'I' for Inactive)
REMARK    1  A    between atoms: O_1  and  C_4
REMARK    2  A    between atoms: C_2  and  C_3
REMARK    3  A    between atoms: C_2  and  C_4
REMARK    4  A    between atoms: C_3  and  C_5
REMARK    5  A    between atoms: C_4  and  C_6
REMARK    6  A    between atoms: C_5  and  C_7
REMARK    7  A    between atoms: C_6  and  C_8
REMARK    8  A    between atoms: C_7  and  C_9
REMARK                            x       y       z     vdW  Elec       q    Type
REMARK                         _______ _______ _______ _____ _____    ______ ____
ROOT
ATOM      1  C   UNL     1      -1.097   9.728 -11.232  0.00  0.00    +0.000 C 
ATOM      2  H   UNL     1      -0.896  10.761 -11.546  0.00  0.00    +0.000 HD
ATOM      3  H   UNL     1      -0.326   9.496 -10.486  0.00  0.00    +0.000 HD
ENDROOT
BRANCH   1   4
ATOM      4  C   UNL     1      -2.479   9.642 -10.574  0.00  0.00    +0.000 C 
ATOM      5  H   UNL     1      -3.099   8.914 -11.111  0.00  0.00    +0.000 HD
ATOM      6  H   UNL     1      -2.986  10.612 -10.632  0.00  0.00    +0.000 HD
BRANCH   4   7
ATOM      7  C   UNL     1      -2.363   9.234  -9.102  0.00  0.00    +0.000 C 
ATOM      8  H   UNL     1      -2.706  10.061  -8.468  0.00  0.00    +0.000 HD
ATOM      9  H   UNL     1      -1.306   9.066  -8.858  0.00  0.00    +0.000 HD
BRANCH   7  10
ATOM     10  C   UNL     1      -3.163   7.976  -8.757  0.00  0.00    +0.000 C 
ATOM     11  H   UNL     1      -2.781   7.549  -7.822  0.00  0.00    +0.000 HD
ATOM     12  H   UNL     1      -4.209   8.249  -8.578  0.00  0.00    +0.000 HD
BRANCH  10  13
ATOM     13  C   UNL     1      -3.113   6.910  -9.840  0.00  0.00    +0.000 C 
ATOM     14  H   UNL     1      -3.535   7.297 -10.774  0.00  0.00    +0.000 HD
ATOM     15  H   UNL     1      -3.689   6.027  -9.546  0.00  0.00    +0.000 HD
ATOM     16  H   UNL     1      -2.083   6.599 -10.036  0.00  0.00    +0.000 HD
ENDBRANCH  10  13
ENDBRANCH   7  10
ENDBRANCH   4   7
ENDBRANCH   1   4
BRANCH   1  17
ATOM     17  C   UNL     1      -0.909   8.791 -12.435  0.00  0.00    +0.000 C 
ATOM     18  H   UNL     1      -1.883   8.623 -12.912  0.00  0.00    +0.000 HD
BRANCH  17  19
ATOM     19  C   UNL     1       0.068   9.339 -13.481  0.00  0.00    +0.000 C 
ATOM     20  H   UNL     1       1.095   9.074 -13.203  0.00  0.00    +0.000 HD
ATOM     21  H   UNL     1       0.007  10.431 -13.531  0.00  0.00    +0.000 HD
BRANCH  19  22
ATOM     22  C   UNL     1      -0.209   8.778 -14.871  0.00  0.00    +0.000 C 
ATOM     23  H   UNL     1      -1.279   8.805 -15.099  0.00  0.00    +0.000 HD
ATOM     24  H   UNL     1       0.313   9.372 -15.626  0.00  0.00    +0.000 HD
ATOM     25  H   UNL     1       0.137   7.743 -14.963  0.00  0.00    +0.000 HD
ENDBRANCH  19  22
ENDBRANCH  17  19
BRANCH  17  26
ATOM     26  O   UNL     1      -0.443   7.520 -11.986  0.00  0.00    +0.000 OA
ATOM     27  H   UNL     1      -0.454   7.530 -11.014  0.00  0.00    +0.000 HD
ENDBRANCH  17  26
ENDBRANCH   1  17
TORSDOF 8
ENDMDL
MODEL 9
REMARK VINA RESULT:    -3.943     25.172     26.595
REMARK INTER + INTRA:          -5.661
REMARK INTER:                  -5.189
REMARK INTRA:                  -0.472
REMARK UNBOUND:                -0.219
REMARK  Name = 11527
REMARK  8 active torsions:
REMARK  status: ('A' for Active; 'I' for Inactive)
REMARK    1  A    between atoms: O_1  and  C_4
REMARK    2  A    between atoms: C_2  and  C_3
REMARK    3  A    between atoms: C_2  and  C_4
REMARK    4  A    between atoms: C_3  and  C_5
REMARK    5  A    between atoms: C_4  and  C_6
REMARK    6  A    between atoms: C_5  and  C_7
REMARK    7  A    between atoms: C_6  and  C_8
REMARK    8  A    between atoms: C_7  and  C_9
REMARK                            x       y       z     vdW  Elec       q    Type
REMARK                         _______ _______ _______ _____ _____    ______ ____
ROOT
ATOM      1  C   UNL     1      -2.122   6.743 -11.183  0.00  0.00    +0.000 C 
ATOM      2  H   UNL     1      -1.302   6.857 -10.462  0.00  0.00    +0.000 HD
ATOM      3  H   UNL     1      -2.111   5.684 -11.470  0.00  0.00    +0.000 HD
ENDROOT
BRANCH   1   4
ATOM      4  C   UNL     1      -3.460   7.069 -10.507  0.00  0.00    +0.000 C 
ATOM      5  H   UNL     1      -4.097   6.177 -10.501  0.00  0.00    +0.000 HD
ATOM      6  H   UNL     1      -3.988   7.847 -11.070  0.00  0.00    +0.000 HD
BRANCH   4   7
ATOM      7  C   UNL     1      -3.245   7.559  -9.072  0.00  0.00    +0.000 C 
ATOM      8  H   UNL     1      -2.690   6.798  -8.508  0.00  0.00    +0.000 HD
ATOM      9  H   UNL     1      -4.219   7.670  -8.579  0.00  0.00    +0.000 HD
BRANCH   7  10
ATOM     10  C   UNL     1      -2.490   8.888  -8.991  0.00  0.00    +0.000 C 
ATOM     11  H   UNL     1      -2.455   9.223  -7.949  0.00  0.00    +0.000 HD
ATOM     12  H   UNL     1      -1.453   8.735  -9.312  0.00  0.00    +0.000 HD
BRANCH  10  13
ATOM     13  C   UNL     1      -3.107   9.988  -9.841  0.00  0.00    +0.000 C 
ATOM     14  H   UNL     1      -3.807  10.581  -9.244  0.00  0.00    +0.000 HD
ATOM     15  H   UNL     1      -3.655   9.565 -10.689  0.00  0.00    +0.000 HD
ATOM     16  H   UNL     1      -2.337  10.660 -10.230  0.00  0.00    +0.000 HD
ENDBRANCH  10  13
ENDBRANCH   7  10
ENDBRANCH   4   7
ENDBRANCH   1   4
BRANCH   1  17
ATOM     17  C   UNL     1      -1.819   7.590 -12.428  0.00  0.00    +0.000 C 
ATOM     18  H   UNL     1      -2.613   8.336 -12.553  0.00  0.00    +0.000 HD
BRANCH  17  19
ATOM     19  C   UNL     1      -0.469   8.310 -12.356  0.00  0.00    +0.000 C 
ATOM     20  H   UNL     1       0.203   7.915 -13.127  0.00  0.00    +0.000 HD
ATOM     21  H   UNL     1       0.006   8.142 -11.383  0.00  0.00    +0.000 HD
BRANCH  19  22
ATOM     22  C   UNL     1      -0.609   9.812 -12.570  0.00  0.00    +0.000 C 
ATOM     23  H   UNL     1      -0.721  10.335 -11.615  0.00  0.00    +0.000 HD
ATOM     24  H   UNL     1       0.282  10.205 -13.068  0.00  0.00    +0.000 HD
ATOM     25  H   UNL     1      -1.473  10.049 -13.198  0.00  0.00    +0.000 HD
ENDBRANCH  19  22
ENDBRANCH  17  19
BRANCH  17  26
ATOM     26  O   UNL     1      -1.842   6.762 -13.589  0.00  0.00    +0.000 OA
ATOM     27  H   UNL     1      -2.694   6.903 -14.034  0.00  0.00    +0.000 HD
ENDBRANCH  17  26
ENDBRANCH   1  17
TORSDOF 8
ENDMDL
MODEL 10
REMARK VINA RESULT:    -3.880     27.851     28.565
REMARK INTER + INTRA:          -5.574
REMARK INTER:                  -5.402
REMARK INTRA:                  -0.172
REMARK UNBOUND:                -0.219
REMARK  Name = 11527
REMARK  8 active torsions:
REMARK  status: ('A' for Active; 'I' for Inactive)
REMARK    1  A    between atoms: O_1  and  C_4
REMARK    2  A    between atoms: C_2  and  C_3
REMARK    3  A    between atoms: C_2  and  C_4
REMARK    4  A    between atoms: C_3  and  C_5
REMARK    5  A    between atoms: C_4  and  C_6
REMARK    6  A    between atoms: C_5  and  C_7
REMARK    7  A    between atoms: C_6  and  C_8
REMARK    8  A    between atoms: C_7  and  C_9
REMARK                            x       y       z     vdW  Elec       q    Type
REMARK                         _______ _______ _______ _____ _____    ______ ____
ROOT
ATOM      1  C   UNL     1       6.215   9.243   0.142  0.00  0.00    +0.000 C 
ATOM      2  H   UNL     1       6.918  10.047   0.396  0.00  0.00    +0.000 HD
ATOM      3  H   UNL     1       6.342   9.077  -0.935  0.00  0.00    +0.000 HD
ENDROOT
BRANCH   1   4
ATOM      4  C   UNL     1       6.592   7.963   0.899  0.00  0.00    +0.000 C 
ATOM      5  H   UNL     1       7.592   7.634   0.592  0.00  0.00    +0.000 HD
ATOM      6  H   UNL     1       5.891   7.158   0.653  0.00  0.00    +0.000 HD
BRANCH   4   7
ATOM      7  C   UNL     1       6.567   8.193   2.413  0.00  0.00    +0.000 C 
ATOM      8  H   UNL     1       6.108   9.167   2.625  0.00  0.00    +0.000 HD
ATOM      9  H   UNL     1       7.598   8.241   2.787  0.00  0.00    +0.000 HD
BRANCH   7  10
ATOM     10  C   UNL     1       5.808   7.107   3.179  0.00  0.00    +0.000 C 
ATOM     11  H   UNL     1       4.732   7.304   3.116  0.00  0.00    +0.000 HD
ATOM     12  H   UNL     1       5.982   6.136   2.699  0.00  0.00    +0.000 HD
BRANCH  10  13
ATOM     13  C   UNL     1       6.205   7.007   4.643  0.00  0.00    +0.000 C 
ATOM     14  H   UNL     1       7.290   7.099   4.750  0.00  0.00    +0.000 HD
ATOM     15  H   UNL     1       5.900   6.045   5.066  0.00  0.00    +0.000 HD
ATOM     16  H   UNL     1       5.737   7.804   5.230  0.00  0.00    +0.000 HD
ENDBRANCH  10  13
ENDBRANCH   7  10
ENDBRANCH   4   7
ENDBRANCH   1   4
BRANCH   1  17
ATOM     17  C   UNL     1       4.781   9.729   0.396  0.00  0.00    +0.000 C 
ATOM     18  H   UNL     1       4.685  10.024   1.449  0.00  0.00    +0.000 HD
BRANCH  17  19
ATOM     19  C   UNL     1       4.378  10.913  -0.489  0.00  0.00    +0.000 C 
ATOM     20  H   UNL     1       3.940  10.544  -1.424  0.00  0.00    +0.000 HD
ATOM     21  H   UNL     1       5.253  11.517  -0.747  0.00  0.00    +0.000 HD
BRANCH  19  22
ATOM     22  C   UNL     1       3.355  11.814   0.191  0.00  0.00    +0.000 C 
ATOM     23  H   UNL     1       2.361  11.353   0.187  0.00  0.00    +0.000 HD
ATOM     24  H   UNL     1       3.641  11.989   1.233  0.00  0.00    +0.000 HD
ATOM     25  H   UNL     1       3.285  12.788  -0.303  0.00  0.00    +0.000 HD
ENDBRANCH  19  22
ENDBRANCH  17  19
BRANCH  17  26
ATOM     26  O   UNL     1       3.865   8.657   0.181  0.00  0.00    +0.000 OA
ATOM     27  H   UNL     1       4.058   7.970   0.841  0.00  0.00    +0.000 HD
ENDBRANCH  17  26
ENDBRANCH   1  17
TORSDOF 8
ENDMDL
