MODEL 1
REMARK VINA RESULT:    -4.314      0.000      0.000
REMARK INTER + INTRA:          -6.228
REMARK INTER:                  -5.856
REMARK INTRA:                  -0.373
REMARK UNBOUND:                -0.275
REMARK  Name = 11515
REMARK  8 active torsions:
REMARK  status: ('A' for Active; 'I' for Inactive)
REMARK    1  A    between atoms: O_1  and  C_2
REMARK    2  A    between atoms: C_2  and  C_3
REMARK    3  A    between atoms: C_2  and  C_4
REMARK    4  A    between atoms: C_3  and  C_5
REMARK    5  A    between atoms: C_4  and  C_6
REMARK    6  A    between atoms: C_5  and  C_7
REMARK    7  A    between atoms: C_6  and  C_8
REMARK    8  A    between atoms: C_7  and  C_9
REMARK                            x       y       z     vdW  Elec       q    Type
REMARK                         _______ _______ _______ _____ _____    ______ ____
ROOT
ATOM      1  C   UNL     1      -2.525   8.913  -9.042  0.00  0.00    +0.000 C 
ATOM      2  H   UNL     1      -1.509   8.730  -8.672  0.00  0.00    +0.000 HD
ENDROOT
BRANCH   1   3
ATOM      3  C   UNL     1      -3.245   7.581  -9.280  0.00  0.00    +0.000 C 
ATOM      4  H   UNL     1      -3.170   6.957  -8.380  0.00  0.00    +0.000 HD
ATOM      5  H   UNL     1      -4.311   7.768  -9.458  0.00  0.00    +0.000 HD
BRANCH   3   6
ATOM      6  C   UNL     1      -2.649   6.800 -10.457  0.00  0.00    +0.000 C 
ATOM      7  H   UNL     1      -1.685   7.241 -10.739  0.00  0.00    +0.000 HD
ATOM      8  H   UNL     1      -2.456   5.762 -10.162  0.00  0.00    +0.000 HD
BRANCH   6   9
ATOM      9  C   UNL     1      -3.589   6.811 -11.663  0.00  0.00    +0.000 C 
ATOM     10  H   UNL     1      -3.443   7.730 -12.242  0.00  0.00    +0.000 HD
ATOM     11  H   UNL     1      -3.356   5.969 -12.325  0.00  0.00    +0.000 HD
BRANCH   9  12
ATOM     12  C   UNL     1      -5.046   6.720 -11.234  0.00  0.00    +0.000 C 
ATOM     13  H   UNL     1      -5.674   6.355 -12.053  0.00  0.00    +0.000 HD
ATOM     14  H   UNL     1      -5.151   6.030 -10.391  0.00  0.00    +0.000 HD
ATOM     15  H   UNL     1      -5.424   7.699 -10.922  0.00  0.00    +0.000 HD
ENDBRANCH   9  12
ENDBRANCH   6   9
ENDBRANCH   3   6
ENDBRANCH   1   3
BRANCH   1  16
ATOM     16  C   UNL     1      -2.468   9.800 -10.293  0.00  0.00    +0.000 C 
ATOM     17  H   UNL     1      -3.019   9.306 -11.103  0.00  0.00    +0.000 HD
ATOM     18  H   UNL     1      -2.999  10.737 -10.079  0.00  0.00    +0.000 HD
BRANCH  16  19
ATOM     19  C   UNL     1      -1.070  10.166 -10.794  0.00  0.00    +0.000 C 
ATOM     20  H   UNL     1      -1.010  11.248 -10.964  0.00  0.00    +0.000 HD
ATOM     21  H   UNL     1      -0.335   9.927 -10.018  0.00  0.00    +0.000 HD
BRANCH  19  22
ATOM     22  C   UNL     1      -0.682   9.458 -12.082  0.00  0.00    +0.000 C 
ATOM     23  H   UNL     1      -0.849   8.381 -11.989  0.00  0.00    +0.000 HD
ATOM     24  H   UNL     1      -1.278   9.824 -12.924  0.00  0.00    +0.000 HD
ATOM     25  H   UNL     1       0.376   9.620 -12.314  0.00  0.00    +0.000 HD
ENDBRANCH  19  22
ENDBRANCH  16  19
ENDBRANCH   1  16
BRANCH   1  26
ATOM     26  O   UNL     1      -3.228   9.632  -8.025  0.00  0.00    +0.000 OA
ATOM     27  H   UNL     1      -3.576  10.448  -8.423  0.00  0.00    +0.000 HD
ENDBRANCH   1  26
TORSDOF 8
ENDMDL
MODEL 2
REMARK VINA RESULT:    -4.286      1.466      3.386
REMARK INTER + INTRA:          -6.190
REMARK INTER:                  -5.751
REMARK INTRA:                  -0.439
REMARK UNBOUND:                -0.275
REMARK  Name = 11515
REMARK  8 active torsions:
REMARK  status: ('A' for Active; 'I' for Inactive)
REMARK    1  A    between atoms: O_1  and  C_2
REMARK    2  A    between atoms: C_2  and  C_3
REMARK    3  A    between atoms: C_2  and  C_4
REMARK    4  A    between atoms: C_3  and  C_5
REMARK    5  A    between atoms: C_4  and  C_6
REMARK    6  A    between atoms: C_5  and  C_7
REMARK    7  A    between atoms: C_6  and  C_8
REMARK    8  A    between atoms: C_7  and  C_9
REMARK                            x       y       z     vdW  Elec       q    Type
REMARK                         _______ _______ _______ _____ _____    ______ ____
ROOT
ATOM      1  C   UNL     1      -3.503   7.514  -9.397  0.00  0.00    +0.000 C 
ATOM      2  H   UNL     1      -4.568   7.550  -9.137  0.00  0.00    +0.000 HD
ENDROOT
BRANCH   1   3
ATOM      3  C   UNL     1      -2.798   8.780  -8.898  0.00  0.00    +0.000 C 
ATOM      4  H   UNL     1      -3.372   9.217  -8.071  0.00  0.00    +0.000 HD
ATOM      5  H   UNL     1      -1.809   8.517  -8.505  0.00  0.00    +0.000 HD
BRANCH   3   6
ATOM      6  C   UNL     1      -2.657   9.839  -9.998  0.00  0.00    +0.000 C 
ATOM      7  H   UNL     1      -3.154   9.487 -10.911  0.00  0.00    +0.000 HD
ATOM      8  H   UNL     1      -3.158  10.766  -9.695  0.00  0.00    +0.000 HD
BRANCH   6   9
ATOM      9  C   UNL     1      -1.188  10.138 -10.296  0.00  0.00    +0.000 C 
ATOM     10  H   UNL     1      -0.891  11.072  -9.807  0.00  0.00    +0.000 HD
ATOM     11  H   UNL     1      -0.556   9.341  -9.887  0.00  0.00    +0.000 HD
BRANCH   9  12
ATOM     12  C   UNL     1      -0.936  10.258 -11.791  0.00  0.00    +0.000 C 
ATOM     13  H   UNL     1       0.135  10.330 -12.003  0.00  0.00    +0.000 HD
ATOM     14  H   UNL     1      -1.329   9.380 -12.314  0.00  0.00    +0.000 HD
ATOM     15  H   UNL     1      -1.428  11.146 -12.201  0.00  0.00    +0.000 HD
ENDBRANCH   9  12
ENDBRANCH   6   9
ENDBRANCH   3   6
ENDBRANCH   1   3
BRANCH   1  16
ATOM     16  C   UNL     1      -3.346   7.291 -10.907  0.00  0.00    +0.000 C 
ATOM     17  H   UNL     1      -4.166   6.652 -11.258  0.00  0.00    +0.000 HD
ATOM     18  H   UNL     1      -3.463   8.258 -11.415  0.00  0.00    +0.000 HD
BRANCH  16  19
ATOM     19  C   UNL     1      -2.016   6.689 -11.363  0.00  0.00    +0.000 C 
ATOM     20  H   UNL     1      -1.189   7.167 -10.825  0.00  0.00    +0.000 HD
ATOM     21  H   UNL     1      -1.993   5.626 -11.098  0.00  0.00    +0.000 HD
BRANCH  19  22
ATOM     22  C   UNL     1      -1.763   6.835 -12.855  0.00  0.00    +0.000 C 
ATOM     23  H   UNL     1      -0.739   7.175 -13.036  0.00  0.00    +0.000 HD
ATOM     24  H   UNL     1      -1.901   5.879 -13.369  0.00  0.00    +0.000 HD
ATOM     25  H   UNL     1      -2.448   7.566 -13.298  0.00  0.00    +0.000 HD
ENDBRANCH  19  22
ENDBRANCH  16  19
ENDBRANCH   1  16
BRANCH   1  26
ATOM     26  O   UNL     1      -2.937   6.386  -8.725  0.00  0.00    +0.000 OA
ATOM     27  H   UNL     1      -3.115   5.597  -9.264  0.00  0.00    +0.000 HD
ENDBRANCH   1  26
TORSDOF 8
ENDMDL
MODEL 3
REMARK VINA RESULT:    -4.255     12.378     13.572
REMARK INTER + INTRA:          -6.146
REMARK INTER:                  -5.485
REMARK INTRA:                  -0.661
REMARK UNBOUND:                -0.275
REMARK  Name = 11515
REMARK  8 active torsions:
REMARK  status: ('A' for Active; 'I' for Inactive)
REMARK    1  A    between atoms: O_1  and  C_2
REMARK    2  A    between atoms: C_2  and  C_3
REMARK    3  A    between atoms: C_2  and  C_4
REMARK    4  A    between atoms: C_3  and  C_5
REMARK    5  A    between atoms: C_4  and  C_6
REMARK    6  A    between atoms: C_5  and  C_7
REMARK    7  A    between atoms: C_6  and  C_8
REMARK    8  A    between atoms: C_7  and  C_9
REMARK                            x       y       z     vdW  Elec       q    Type
REMARK                         _______ _______ _______ _____ _____    ______ ____
ROOT
ATOM      1  C   UNL     1       6.618  11.439  -0.576  0.00  0.00    +0.000 C 
ATOM      2  H   UNL     1       7.184  12.375  -0.501  0.00  0.00    +0.000 HD
ENDROOT
BRANCH   1   3
ATOM      3  C   UNL     1       5.242  11.603   0.079  0.00  0.00    +0.000 C 
ATOM      4  H   UNL     1       5.276  11.214   1.104  0.00  0.00    +0.000 HD
ATOM      5  H   UNL     1       4.992  12.669   0.143  0.00  0.00    +0.000 HD
BRANCH   3   6
ATOM      6  C   UNL     1       4.142  10.855  -0.684  0.00  0.00    +0.000 C 
ATOM      7  H   UNL     1       3.302  11.534  -0.876  0.00  0.00    +0.000 HD
ATOM      8  H   UNL     1       4.519  10.523  -1.659  0.00  0.00    +0.000 HD
BRANCH   6   9
ATOM      9  C   UNL     1       3.650   9.640   0.102  0.00  0.00    +0.000 C 
ATOM     10  H   UNL     1       2.561   9.553   0.010  0.00  0.00    +0.000 HD
ATOM     11  H   UNL     1       4.085   8.725  -0.316  0.00  0.00    +0.000 HD
BRANCH   9  12
ATOM     12  C   UNL     1       4.017   9.742   1.574  0.00  0.00    +0.000 C 
ATOM     13  H   UNL     1       4.449  10.721   1.803  0.00  0.00    +0.000 HD
ATOM     14  H   UNL     1       3.127   9.608   2.197  0.00  0.00    +0.000 HD
ATOM     15  H   UNL     1       4.744   8.972   1.851  0.00  0.00    +0.000 HD
ENDBRANCH   9  12
ENDBRANCH   6   9
ENDBRANCH   3   6
ENDBRANCH   1   3
BRANCH   1  16
ATOM     16  C   UNL     1       7.438  10.289   0.023  0.00  0.00    +0.000 C 
ATOM     17  H   UNL     1       8.441  10.659   0.269  0.00  0.00    +0.000 HD
ATOM     18  H   UNL     1       6.974   9.988   0.972  0.00  0.00    +0.000 HD
BRANCH  16  19
ATOM     19  C   UNL     1       7.570   9.035  -0.842  0.00  0.00    +0.000 C 
ATOM     20  H   UNL     1       7.246   9.256  -1.867  0.00  0.00    +0.000 HD
ATOM     21  H   UNL     1       8.626   8.747  -0.901  0.00  0.00    +0.000 HD
BRANCH  19  22
ATOM     22  C   UNL     1       6.760   7.854  -0.330  0.00  0.00    +0.000 C 
ATOM     23  H   UNL     1       6.034   7.535  -1.084  0.00  0.00    +0.000 HD
ATOM     24  H   UNL     1       7.411   7.005  -0.101  0.00  0.00    +0.000 HD
ATOM     25  H   UNL     1       6.212   8.123   0.579  0.00  0.00    +0.000 HD
ENDBRANCH  19  22
ENDBRANCH  16  19
ENDBRANCH   1  16
BRANCH   1  26
ATOM     26  O   UNL     1       6.428  11.165  -1.967  0.00  0.00    +0.000 OA
ATOM     27  H   UNL     1       5.547  10.768  -2.074  0.00  0.00    +0.000 HD
ENDBRANCH   1  26
TORSDOF 8
ENDMDL
MODEL 4
REMARK VINA RESULT:    -4.231     13.238     14.384
REMARK INTER + INTRA:          -6.113
REMARK INTER:                  -5.600
REMARK INTRA:                  -0.514
REMARK UNBOUND:                -0.275
REMARK  Name = 11515
REMARK  8 active torsions:
REMARK  status: ('A' for Active; 'I' for Inactive)
REMARK    1  A    between atoms: O_1  and  C_2
REMARK    2  A    between atoms: C_2  and  C_3
REMARK    3  A    between atoms: C_2  and  C_4
REMARK    4  A    between atoms: C_3  and  C_5
REMARK    5  A    between atoms: C_4  and  C_6
REMARK    6  A    between atoms: C_5  and  C_7
REMARK    7  A    between atoms: C_6  and  C_8
REMARK    8  A    between atoms: C_7  and  C_9
REMARK                            x       y       z     vdW  Elec       q    Type
REMARK                         _______ _______ _______ _____ _____    ______ ____
ROOT
ATOM      1  C   UNL     1       6.426  10.644  -0.766  0.00  0.00    +0.000 C 
ATOM      2  H   UNL     1       5.779   9.761  -0.816  0.00  0.00    +0.000 HD
ENDROOT
BRANCH   1   3
ATOM      3  C   UNL     1       7.819  10.245  -0.266  0.00  0.00    +0.000 C 
ATOM      4  H   UNL     1       8.280   9.551  -0.980  0.00  0.00    +0.000 HD
ATOM      5  H   UNL     1       8.458  11.135  -0.217  0.00  0.00    +0.000 HD
BRANCH   3   6
ATOM      6  C   UNL     1       7.771   9.563   1.107  0.00  0.00    +0.000 C 
ATOM      7  H   UNL     1       8.787   9.290   1.417  0.00  0.00    +0.000 HD
ATOM      8  H   UNL     1       7.378  10.257   1.859  0.00  0.00    +0.000 HD
BRANCH   6   9
ATOM      9  C   UNL     1       6.893   8.312   1.073  0.00  0.00    +0.000 C 
ATOM     10  H   UNL     1       6.044   8.470   0.398  0.00  0.00    +0.000 HD
ATOM     11  H   UNL     1       7.466   7.464   0.681  0.00  0.00    +0.000 HD
BRANCH   9  12
ATOM     12  C   UNL     1       6.367   7.962   2.457  0.00  0.00    +0.000 C 
ATOM     13  H   UNL     1       5.851   6.997   2.448  0.00  0.00    +0.000 HD
ATOM     14  H   UNL     1       7.194   7.901   3.172  0.00  0.00    +0.000 HD
ATOM     15  H   UNL     1       5.666   8.723   2.814  0.00  0.00    +0.000 HD
ENDBRANCH   9  12
ENDBRANCH   6   9
ENDBRANCH   3   6
ENDBRANCH   1   3
BRANCH   1  16
ATOM     16  C   UNL     1       5.761  11.724   0.098  0.00  0.00    +0.000 C 
ATOM     17  H   UNL     1       6.201  11.696   1.102  0.00  0.00    +0.000 HD
ATOM     18  H   UNL     1       6.009  12.708  -0.325  0.00  0.00    +0.000 HD
BRANCH  16  19
ATOM     19  C   UNL     1       4.239  11.645   0.220  0.00  0.00    +0.000 C 
ATOM     20  H   UNL     1       3.859  12.549   0.710  0.00  0.00    +0.000 HD
ATOM     21  H   UNL     1       3.798  11.622  -0.783  0.00  0.00    +0.000 HD
BRANCH  19  22
ATOM     22  C   UNL     1       3.754  10.436   1.004  0.00  0.00    +0.000 C 
ATOM     23  H   UNL     1       2.718  10.582   1.325  0.00  0.00    +0.000 HD
ATOM     24  H   UNL     1       3.798   9.531   0.391  0.00  0.00    +0.000 HD
ATOM     25  H   UNL     1       4.368  10.278   1.896  0.00  0.00    +0.000 HD
ENDBRANCH  19  22
ENDBRANCH  16  19
ENDBRANCH   1  16
BRANCH   1  26
ATOM     26  O   UNL     1       6.552  11.159  -2.094  0.00  0.00    +0.000 OA
ATOM     27  H   UNL     1       7.207  10.614  -2.564  0.00  0.00    +0.000 HD
ENDBRANCH   1  26
TORSDOF 8
ENDMDL
MODEL 5
REMARK VINA RESULT:    -4.220     12.752     14.243
REMARK INTER + INTRA:          -6.098
REMARK INTER:                  -5.960
REMARK INTRA:                  -0.138
REMARK UNBOUND:                -0.275
REMARK  Name = 11515
REMARK  8 active torsions:
REMARK  status: ('A' for Active; 'I' for Inactive)
REMARK    1  A    between atoms: O_1  and  C_2
REMARK    2  A    between atoms: C_2  and  C_3
REMARK    3  A    between atoms: C_2  and  C_4
REMARK    4  A    between atoms: C_3  and  C_5
REMARK    5  A    between atoms: C_4  and  C_6
REMARK    6  A    between atoms: C_5  and  C_7
REMARK    7  A    between atoms: C_6  and  C_8
REMARK    8  A    between atoms: C_7  and  C_9
REMARK                            x       y       z     vdW  Elec       q    Type
REMARK                         _______ _______ _______ _____ _____    ______ ____
ROOT
ATOM      1  C   UNL     1       3.745   8.694   1.793  0.00  0.00    +0.000 C 
ATOM      2  H   UNL     1       3.251   7.739   1.581  0.00  0.00    +0.000 HD
ENDROOT
BRANCH   1   3
ATOM      3  C   UNL     1       3.905   9.502   0.500  0.00  0.00    +0.000 C 
ATOM      4  H   UNL     1       4.802   9.164  -0.034  0.00  0.00    +0.000 HD
ATOM      5  H   UNL     1       3.046   9.317  -0.155  0.00  0.00    +0.000 HD
BRANCH   3   6
ATOM      6  C   UNL     1       4.043  11.006   0.768  0.00  0.00    +0.000 C 
ATOM      7  H   UNL     1       3.692  11.231   1.783  0.00  0.00    +0.000 HD
ATOM      8  H   UNL     1       5.098  11.302   0.717  0.00  0.00    +0.000 HD
BRANCH   6   9
ATOM      9  C   UNL     1       3.243  11.825  -0.245  0.00  0.00    +0.000 C 
ATOM     10  H   UNL     1       2.207  11.929   0.096  0.00  0.00    +0.000 HD
ATOM     11  H   UNL     1       3.663  12.835  -0.322  0.00  0.00    +0.000 HD
BRANCH   9  12
ATOM     12  C   UNL     1       3.251  11.174  -1.620  0.00  0.00    +0.000 C 
ATOM     13  H   UNL     1       2.305  10.662  -1.816  0.00  0.00    +0.000 HD
ATOM     14  H   UNL     1       3.397  11.932  -2.397  0.00  0.00    +0.000 HD
ATOM     15  H   UNL     1       4.061  10.443  -1.702  0.00  0.00    +0.000 HD
ENDBRANCH   9  12
ENDBRANCH   6   9
ENDBRANCH   3   6
ENDBRANCH   1   3
BRANCH   1  16
ATOM     16  C   UNL     1       5.076   8.439   2.514  0.00  0.00    +0.000 C 
ATOM     17  H   UNL     1       5.894   8.525   1.788  0.00  0.00    +0.000 HD
ATOM     18  H   UNL     1       5.229   9.235   3.254  0.00  0.00    +0.000 HD
BRANCH  16  19
ATOM     19  C   UNL     1       5.199   7.101   3.244  0.00  0.00    +0.000 C 
ATOM     20  H   UNL     1       4.200   6.715   3.482  0.00  0.00    +0.000 HD
ATOM     21  H   UNL     1       5.670   6.369   2.578  0.00  0.00    +0.000 HD
BRANCH  19  22
ATOM     22  C   UNL     1       5.998   7.184   4.535  0.00  0.00    +0.000 C 
ATOM     23  H   UNL     1       5.771   8.115   5.063  0.00  0.00    +0.000 HD
ATOM     24  H   UNL     1       5.757   6.348   5.198  0.00  0.00    +0.000 HD
ATOM     25  H   UNL     1       7.074   7.162   4.330  0.00  0.00    +0.000 HD
ENDBRANCH  19  22
ENDBRANCH  16  19
ENDBRANCH   1  16
BRANCH   1  26
ATOM     26  O   UNL     1       2.898   9.427   2.683  0.00  0.00    +0.000 OA
ATOM     27  H   UNL     1       2.906  10.358   2.403  0.00  0.00    +0.000 HD
ENDBRANCH   1  26
TORSDOF 8
ENDMDL
MODEL 6
REMARK VINA RESULT:    -4.086      1.862      2.523
REMARK INTER + INTRA:          -5.913
REMARK INTER:                  -5.539
REMARK INTRA:                  -0.374
REMARK UNBOUND:                -0.275
REMARK  Name = 11515
REMARK  8 active torsions:
REMARK  status: ('A' for Active; 'I' for Inactive)
REMARK    1  A    between atoms: O_1  and  C_2
REMARK    2  A    between atoms: C_2  and  C_3
REMARK    3  A    between atoms: C_2  and  C_4
REMARK    4  A    between atoms: C_3  and  C_5
REMARK    5  A    between atoms: C_4  and  C_6
REMARK    6  A    between atoms: C_5  and  C_7
REMARK    7  A    between atoms: C_6  and  C_8
REMARK    8  A    between atoms: C_7  and  C_9
REMARK                            x       y       z     vdW  Elec       q    Type
REMARK                         _______ _______ _______ _____ _____    ______ ____
ROOT
ATOM      1  C   UNL     1      -1.727   9.355 -10.616  0.00  0.00    +0.000 C 
ATOM      2  H   UNL     1      -1.321   8.349 -10.458  0.00  0.00    +0.000 HD
ENDROOT
BRANCH   1   3
ATOM      3  C   UNL     1      -2.822   9.648  -9.583  0.00  0.00    +0.000 C 
ATOM      4  H   UNL     1      -2.565  10.558  -9.026  0.00  0.00    +0.000 HD
ATOM      5  H   UNL     1      -3.770   9.839 -10.100  0.00  0.00    +0.000 HD
BRANCH   3   6
ATOM      6  C   UNL     1      -2.996   8.502  -8.580  0.00  0.00    +0.000 C 
ATOM      7  H   UNL     1      -2.119   8.452  -7.924  0.00  0.00    +0.000 HD
ATOM      8  H   UNL     1      -3.868   8.689  -7.942  0.00  0.00    +0.000 HD
BRANCH   6   9
ATOM      9  C   UNL     1      -3.178   7.162  -9.294  0.00  0.00    +0.000 C 
ATOM     10  H   UNL     1      -3.240   7.322 -10.377  0.00  0.00    +0.000 HD
ATOM     11  H   UNL     1      -2.308   6.521  -9.110  0.00  0.00    +0.000 HD
BRANCH   9  12
ATOM     12  C   UNL     1      -4.435   6.446  -8.825  0.00  0.00    +0.000 C 
ATOM     13  H   UNL     1      -5.206   7.163  -8.525  0.00  0.00    +0.000 HD
ATOM     14  H   UNL     1      -4.840   5.826  -9.631  0.00  0.00    +0.000 HD
ATOM     15  H   UNL     1      -4.220   5.796  -7.972  0.00  0.00    +0.000 HD
ENDBRANCH   9  12
ENDBRANCH   6   9
ENDBRANCH   3   6
ENDBRANCH   1   3
BRANCH   1  16
ATOM     16  C   UNL     1      -2.212   9.495 -12.065  0.00  0.00    +0.000 C 
ATOM     17  H   UNL     1      -3.308   9.544 -12.069  0.00  0.00    +0.000 HD
ATOM     18  H   UNL     1      -1.854  10.455 -12.460  0.00  0.00    +0.000 HD
BRANCH  16  19
ATOM     19  C   UNL     1      -1.760   8.401 -13.034  0.00  0.00    +0.000 C 
ATOM     20  H   UNL     1      -2.567   8.177 -13.742  0.00  0.00    +0.000 HD
ATOM     21  H   UNL     1      -0.915   8.771 -13.626  0.00  0.00    +0.000 HD
BRANCH  19  22
ATOM     22  C   UNL     1      -1.356   7.108 -12.345  0.00  0.00    +0.000 C 
ATOM     23  H   UNL     1      -2.222   6.652 -11.854  0.00  0.00    +0.000 HD
ATOM     24  H   UNL     1      -0.956   6.389 -13.067  0.00  0.00    +0.000 HD
ATOM     25  H   UNL     1      -0.591   7.293 -11.584  0.00  0.00    +0.000 HD
ENDBRANCH  19  22
ENDBRANCH  16  19
ENDBRANCH   1  16
BRANCH   1  26
ATOM     26  O   UNL     1      -0.658  10.284 -10.419  0.00  0.00    +0.000 OA
ATOM     27  H   UNL     1      -0.315  10.534 -11.293  0.00  0.00    +0.000 HD
ENDBRANCH   1  26
TORSDOF 8
ENDMDL
MODEL 7
REMARK VINA RESULT:    -4.044     27.383     28.816
REMARK INTER + INTRA:          -5.855
REMARK INTER:                  -5.580
REMARK INTRA:                  -0.275
REMARK UNBOUND:                -0.275
REMARK  Name = 11515
REMARK  8 active torsions:
REMARK  status: ('A' for Active; 'I' for Inactive)
REMARK    1  A    between atoms: O_1  and  C_2
REMARK    2  A    between atoms: C_2  and  C_3
REMARK    3  A    between atoms: C_2  and  C_4
REMARK    4  A    between atoms: C_3  and  C_5
REMARK    5  A    between atoms: C_4  and  C_6
REMARK    6  A    between atoms: C_5  and  C_7
REMARK    7  A    between atoms: C_6  and  C_8
REMARK    8  A    between atoms: C_7  and  C_9
REMARK                            x       y       z     vdW  Elec       q    Type
REMARK                         _______ _______ _______ _____ _____    ______ ____
ROOT
ATOM      1  C   UNL     1      -8.915   9.045  17.758  0.00  0.00    +0.000 C 
ATOM      2  H   UNL     1      -8.728   9.918  18.393  0.00  0.00    +0.000 HD
ENDROOT
BRANCH   1   3
ATOM      3  C   UNL     1      -9.376   9.497  16.367  0.00  0.00    +0.000 C 
ATOM      4  H   UNL     1      -8.550  10.004  15.854  0.00  0.00    +0.000 HD
ATOM      5  H   UNL     1      -9.643   8.618  15.767  0.00  0.00    +0.000 HD
BRANCH   3   6
ATOM      6  C   UNL     1     -10.566  10.462  16.435  0.00  0.00    +0.000 C 
ATOM      7  H   UNL     1     -11.310  10.078  17.144  0.00  0.00    +0.000 HD
ATOM      8  H   UNL     1     -10.238  11.439  16.808  0.00  0.00    +0.000 HD
BRANCH   6   9
ATOM      9  C   UNL     1     -11.213  10.642  15.062  0.00  0.00    +0.000 C 
ATOM     10  H   UNL     1     -12.278  10.387  15.115  0.00  0.00    +0.000 HD
ATOM     11  H   UNL     1     -11.146  11.691  14.753  0.00  0.00    +0.000 HD
BRANCH   9  12
ATOM     12  C   UNL     1     -10.545   9.767  14.011  0.00  0.00    +0.000 C 
ATOM     13  H   UNL     1     -10.048  10.378  13.251  0.00  0.00    +0.000 HD
ATOM     14  H   UNL     1      -9.792   9.124  14.478  0.00  0.00    +0.000 HD
ATOM     15  H   UNL     1     -11.277   9.125  13.513  0.00  0.00    +0.000 HD
ENDBRANCH   9  12
ENDBRANCH   6   9
ENDBRANCH   3   6
ENDBRANCH   1   3
BRANCH   1  16
ATOM     16  C   UNL     1      -9.914   8.106  18.449  0.00  0.00    +0.000 C 
ATOM     17  H   UNL     1     -10.904   8.250  18.000  0.00  0.00    +0.000 HD
ATOM     18  H   UNL     1      -9.621   7.069  18.234  0.00  0.00    +0.000 HD
BRANCH  16  19
ATOM     19  C   UNL     1     -10.030   8.248  19.967  0.00  0.00    +0.000 C 
ATOM     20  H   UNL     1     -10.509   7.355  20.387  0.00  0.00    +0.000 HD
ATOM     21  H   UNL     1      -9.025   8.301  20.401  0.00  0.00    +0.000 HD
BRANCH  19  22
ATOM     22  C   UNL     1     -10.826   9.467  20.404  0.00  0.00    +0.000 C 
ATOM     23  H   UNL     1     -11.872   9.196  20.578  0.00  0.00    +0.000 HD
ATOM     24  H   UNL     1     -10.423   9.884  21.332  0.00  0.00    +0.000 HD
ATOM     25  H   UNL     1     -10.799  10.247  19.637  0.00  0.00    +0.000 HD
ENDBRANCH  19  22
ENDBRANCH  16  19
ENDBRANCH   1  16
BRANCH   1  26
ATOM     26  O   UNL     1      -7.677   8.343  17.618  0.00  0.00    +0.000 OA
ATOM     27  H   UNL     1      -7.557   7.790  18.409  0.00  0.00    +0.000 HD
ENDBRANCH   1  26
TORSDOF 8
ENDMDL
MODEL 8
REMARK VINA RESULT:    -3.961     13.425     14.834
REMARK INTER + INTRA:          -5.741
REMARK INTER:                  -5.537
REMARK INTRA:                  -0.204
REMARK UNBOUND:                -0.275
REMARK  Name = 11515
REMARK  8 active torsions:
REMARK  status: ('A' for Active; 'I' for Inactive)
REMARK    1  A    between atoms: O_1  and  C_2
REMARK    2  A    between atoms: C_2  and  C_3
REMARK    3  A    between atoms: C_2  and  C_4
REMARK    4  A    between atoms: C_3  and  C_5
REMARK    5  A    between atoms: C_4  and  C_6
REMARK    6  A    between atoms: C_5  and  C_7
REMARK    7  A    between atoms: C_6  and  C_8
REMARK    8  A    between atoms: C_7  and  C_9
REMARK                            x       y       z     vdW  Elec       q    Type
REMARK                         _______ _______ _______ _____ _____    ______ ____
ROOT
ATOM      1  C   UNL     1       6.411   8.521   0.979  0.00  0.00    +0.000 C 
ATOM      2  H   UNL     1       7.195   9.267   1.151  0.00  0.00    +0.000 HD
ENDROOT
BRANCH   1   3
ATOM      3  C   UNL     1       5.233   9.159   0.235  0.00  0.00    +0.000 C 
ATOM      4  H   UNL     1       5.600   9.972  -0.404  0.00  0.00    +0.000 HD
ATOM      5  H   UNL     1       4.768   8.413  -0.422  0.00  0.00    +0.000 HD
BRANCH   3   6
ATOM      6  C   UNL     1       4.183   9.735   1.193  0.00  0.00    +0.000 C 
ATOM      7  H   UNL     1       3.378   9.004   1.337  0.00  0.00    +0.000 HD
ATOM      8  H   UNL     1       4.632   9.921   2.175  0.00  0.00    +0.000 HD
BRANCH   6   9
ATOM      9  C   UNL     1       3.599  11.041   0.654  0.00  0.00    +0.000 C 
ATOM     10  H   UNL     1       2.577  11.174   1.026  0.00  0.00    +0.000 HD
ATOM     11  H   UNL     1       4.189  11.891   1.017  0.00  0.00    +0.000 HD
BRANCH   9  12
ATOM     12  C   UNL     1       3.580  11.059  -0.867  0.00  0.00    +0.000 C 
ATOM     13  H   UNL     1       4.504  10.637  -1.275  0.00  0.00    +0.000 HD
ATOM     14  H   UNL     1       2.740  10.466  -1.242  0.00  0.00    +0.000 HD
ATOM     15  H   UNL     1       3.471  12.079  -1.245  0.00  0.00    +0.000 HD
ENDBRANCH   9  12
ENDBRANCH   6   9
ENDBRANCH   3   6
ENDBRANCH   1   3
BRANCH   1  16
ATOM     16  C   UNL     1       6.005   7.880   2.314  0.00  0.00    +0.000 C 
ATOM     17  H   UNL     1       4.963   8.144   2.531  0.00  0.00    +0.000 HD
ATOM     18  H   UNL     1       6.035   6.788   2.199  0.00  0.00    +0.000 HD
BRANCH  16  19
ATOM     19  C   UNL     1       6.871   8.240   3.523  0.00  0.00    +0.000 C 
ATOM     20  H   UNL     1       7.931   8.127   3.266  0.00  0.00    +0.000 HD
ATOM     21  H   UNL     1       6.717   9.295   3.774  0.00  0.00    +0.000 HD
BRANCH  19  22
ATOM     22  C   UNL     1       6.584   7.390   4.750  0.00  0.00    +0.000 C 
ATOM     23  H   UNL     1       5.530   7.093   4.769  0.00  0.00    +0.000 HD
ATOM     24  H   UNL     1       7.194   6.482   4.747  0.00  0.00    +0.000 HD
ATOM     25  H   UNL     1       6.798   7.945   5.669  0.00  0.00    +0.000 HD
ENDBRANCH  19  22
ENDBRANCH  16  19
ENDBRANCH   1  16
BRANCH   1  26
ATOM     26  O   UNL     1       6.968   7.496   0.152  0.00  0.00    +0.000 OA
ATOM     27  H   UNL     1       7.642   7.027   0.672  0.00  0.00    +0.000 HD
ENDBRANCH   1  26
TORSDOF 8
ENDMDL
MODEL 9
REMARK VINA RESULT:    -3.954      2.298      2.798
REMARK INTER + INTRA:          -5.732
REMARK INTER:                  -5.499
REMARK INTRA:                  -0.233
REMARK UNBOUND:                -0.275
REMARK  Name = 11515
REMARK  8 active torsions:
REMARK  status: ('A' for Active; 'I' for Inactive)
REMARK    1  A    between atoms: O_1  and  C_2
REMARK    2  A    between atoms: C_2  and  C_3
REMARK    3  A    between atoms: C_2  and  C_4
REMARK    4  A    between atoms: C_3  and  C_5
REMARK    5  A    between atoms: C_4  and  C_6
REMARK    6  A    between atoms: C_5  and  C_7
REMARK    7  A    between atoms: C_6  and  C_8
REMARK    8  A    between atoms: C_7  and  C_9
REMARK                            x       y       z     vdW  Elec       q    Type
REMARK                         _______ _______ _______ _____ _____    ______ ____
ROOT
ATOM      1  C   UNL     1      -2.260   7.008 -11.619  0.00  0.00    +0.000 C 
ATOM      2  H   UNL     1      -2.771   6.375 -12.354  0.00  0.00    +0.000 HD
ENDROOT
BRANCH   1   3
ATOM      3  C   UNL     1      -2.801   6.720 -10.213  0.00  0.00    +0.000 C 
ATOM      4  H   UNL     1      -2.470   5.725  -9.890  0.00  0.00    +0.000 HD
ATOM      5  H   UNL     1      -2.385   7.448  -9.506  0.00  0.00    +0.000 HD
BRANCH   3   6
ATOM      6  C   UNL     1      -4.333   6.759 -10.161  0.00  0.00    +0.000 C 
ATOM      7  H   UNL     1      -4.682   7.771 -10.400  0.00  0.00    +0.000 HD
ATOM      8  H   UNL     1      -4.753   6.085 -10.917  0.00  0.00    +0.000 HD
BRANCH   6   9
ATOM      9  C   UNL     1      -4.851   6.350  -8.782  0.00  0.00    +0.000 C 
ATOM     10  H   UNL     1      -4.168   5.624  -8.327  0.00  0.00    +0.000 HD
ATOM     11  H   UNL     1      -4.883   7.224  -8.121  0.00  0.00    +0.000 HD
BRANCH   9  12
ATOM     12  C   UNL     1      -6.241   5.737  -8.868  0.00  0.00    +0.000 C 
ATOM     13  H   UNL     1      -6.194   4.647  -8.791  0.00  0.00    +0.000 HD
ATOM     14  H   UNL     1      -6.870   6.110  -8.053  0.00  0.00    +0.000 HD
ATOM     15  H   UNL     1      -6.725   5.994  -9.815  0.00  0.00    +0.000 HD
ENDBRANCH   9  12
ENDBRANCH   6   9
ENDBRANCH   3   6
ENDBRANCH   1   3
BRANCH   1  16
ATOM     16  C   UNL     1      -2.391   8.482 -12.026  0.00  0.00    +0.000 C 
ATOM     17  H   UNL     1      -2.635   8.534 -13.094  0.00  0.00    +0.000 HD
ATOM     18  H   UNL     1      -3.244   8.917 -11.488  0.00  0.00    +0.000 HD
BRANCH  16  19
ATOM     19  C   UNL     1      -1.174   9.366 -11.750  0.00  0.00    +0.000 C 
ATOM     20  H   UNL     1      -0.261   8.758 -11.777  0.00  0.00    +0.000 HD
ATOM     21  H   UNL     1      -1.081  10.110 -12.549  0.00  0.00    +0.000 HD
BRANCH  19  22
ATOM     22  C   UNL     1      -1.232  10.080 -10.409  0.00  0.00    +0.000 C 
ATOM     23  H   UNL     1      -2.165   9.838  -9.890  0.00  0.00    +0.000 HD
ATOM     24  H   UNL     1      -0.397   9.778  -9.770  0.00  0.00    +0.000 HD
ATOM     25  H   UNL     1      -1.189  11.166 -10.543  0.00  0.00    +0.000 HD
ENDBRANCH  19  22
ENDBRANCH  16  19
ENDBRANCH   1  16
BRANCH   1  26
ATOM     26  O   UNL     1      -0.872   6.665 -11.649  0.00  0.00    +0.000 OA
ATOM     27  H   UNL     1      -0.573   6.554 -10.730  0.00  0.00    +0.000 HD
ENDBRANCH   1  26
TORSDOF 8
ENDMDL
MODEL 10
REMARK VINA RESULT:    -3.873      1.581      2.307
REMARK INTER + INTRA:          -5.620
REMARK INTER:                  -5.064
REMARK INTRA:                  -0.555
REMARK UNBOUND:                -0.275
REMARK  Name = 11515
REMARK  8 active torsions:
REMARK  status: ('A' for Active; 'I' for Inactive)
REMARK    1  A    between atoms: O_1  and  C_2
REMARK    2  A    between atoms: C_2  and  C_3
REMARK    3  A    between atoms: C_2  and  C_4
REMARK    4  A    between atoms: C_3  and  C_5
REMARK    5  A    between atoms: C_4  and  C_6
REMARK    6  A    between atoms: C_5  and  C_7
REMARK    7  A    between atoms: C_6  and  C_8
REMARK    8  A    between atoms: C_7  and  C_9
REMARK                            x       y       z     vdW  Elec       q    Type
REMARK                         _______ _______ _______ _____ _____    ______ ____
ROOT
ATOM      1  C   UNL     1      -2.932   7.378  -9.731  0.00  0.00    +0.000 C 
ATOM      2  H   UNL     1      -2.006   7.086 -10.241  0.00  0.00    +0.000 HD
ENDROOT
BRANCH   1   3
ATOM      3  C   UNL     1      -4.110   7.325 -10.710  0.00  0.00    +0.000 C 
ATOM      4  H   UNL     1      -4.920   6.724 -10.276  0.00  0.00    +0.000 HD
ATOM      5  H   UNL     1      -4.502   8.337 -10.864  0.00  0.00    +0.000 HD
BRANCH   3   6
ATOM      6  C   UNL     1      -3.720   6.705 -12.057  0.00  0.00    +0.000 C 
ATOM      7  H   UNL     1      -3.089   5.824 -11.885  0.00  0.00    +0.000 HD
ATOM      8  H   UNL     1      -4.616   6.363 -12.588  0.00  0.00    +0.000 HD
BRANCH   6   9
ATOM      9  C   UNL     1      -2.971   7.709 -12.933  0.00  0.00    +0.000 C 
ATOM     10  H   UNL     1      -3.494   7.832 -13.889  0.00  0.00    +0.000 HD
ATOM     11  H   UNL     1      -2.954   8.690 -12.444  0.00  0.00    +0.000 HD
BRANCH   9  12
ATOM     12  C   UNL     1      -1.543   7.259 -13.202  0.00  0.00    +0.000 C 
ATOM     13  H   UNL     1      -0.960   7.232 -12.277  0.00  0.00    +0.000 HD
ATOM     14  H   UNL     1      -1.539   6.254 -13.637  0.00  0.00    +0.000 HD
ATOM     15  H   UNL     1      -1.045   7.935 -13.904  0.00  0.00    +0.000 HD
ENDBRANCH   9  12
ENDBRANCH   6   9
ENDBRANCH   3   6
ENDBRANCH   1   3
BRANCH   1  16
ATOM     16  C   UNL     1      -2.750   8.756  -9.079  0.00  0.00    +0.000 C 
ATOM     17  H   UNL     1      -3.596   8.943  -8.406  0.00  0.00    +0.000 HD
ATOM     18  H   UNL     1      -1.850   8.727  -8.450  0.00  0.00    +0.000 HD
BRANCH  16  19
ATOM     19  C   UNL     1      -2.606   9.939 -10.036  0.00  0.00    +0.000 C 
ATOM     20  H   UNL     1      -3.328   9.843 -10.856  0.00  0.00    +0.000 HD
ATOM     21  H   UNL     1      -2.854  10.865  -9.505  0.00  0.00    +0.000 HD
BRANCH  19  22
ATOM     22  C   UNL     1      -1.215  10.068 -10.637  0.00  0.00    +0.000 C 
ATOM     23  H   UNL     1      -1.257  10.632 -11.574  0.00  0.00    +0.000 HD
ATOM     24  H   UNL     1      -0.542  10.593  -9.953  0.00  0.00    +0.000 HD
ATOM     25  H   UNL     1      -0.789   9.083 -10.851  0.00  0.00    +0.000 HD
ENDBRANCH  19  22
ENDBRANCH  16  19
ENDBRANCH   1  16
BRANCH   1  26
ATOM     26  O   UNL     1      -3.165   6.426  -8.689  0.00  0.00    +0.000 OA
ATOM     27  H   UNL     1      -2.591   6.658  -7.940  0.00  0.00    +0.000 HD
ENDBRANCH   1  26
TORSDOF 8
ENDMDL
