MODEL 1
REMARK VINA RESULT:    -4.565      0.000      0.000
REMARK INTER + INTRA:          -5.938
REMARK INTER:                  -5.553
REMARK INTRA:                  -0.385
REMARK UNBOUND:                -0.172
REMARK  Name = 9862
REMARK  6 active torsions:
REMARK  status: ('A' for Active; 'I' for Inactive)
REMARK    1  A    between atoms: C_2  and  C_3
REMARK    2  A    between atoms: C_2  and  C_4
REMARK    3  A    between atoms: C_3  and  C_6
REMARK    4  A    between atoms: C_5  and  C_7
REMARK    5  A    between atoms: C_5  and  C_8
REMARK    6  A    between atoms: C_6  and  C_9
REMARK                            x       y       z     vdW  Elec       q    Type
REMARK                         _______ _______ _______ _____ _____    ______ ____
ROOT
ATOM      1  C   UNL     1       5.598  11.929   0.229  0.00  0.00    +0.000 C 
ATOM      2  H   UNL     1       5.679  13.023   0.220  0.00  0.00    +0.000 HD
ATOM      3  H   UNL     1       5.866  11.626   1.249  0.00  0.00    +0.000 HD
ENDROOT
BRANCH   1   4
ATOM      4  C   UNL     1       4.168  11.498  -0.086  0.00  0.00    +0.000 C 
ATOM      5  H   UNL     1       4.092  11.175  -1.131  0.00  0.00    +0.000 HD
ATOM      6  H   UNL     1       3.478  12.337   0.067  0.00  0.00    +0.000 HD
BRANCH   4   8
ATOM      7  O   UNL     1       3.196  10.521   1.901  0.00  0.00    +0.000 OA
ATOM      8  C   UNL     1       3.699  10.351   0.791  0.00  0.00    +0.000 C 
BRANCH   8   9
ATOM      9  C   UNL     1       3.879   8.966   0.225  0.00  0.00    +0.000 C 
ATOM     10  H   UNL     1       4.646   8.435   0.795  0.00  0.00    +0.000 HD
ATOM     11  H   UNL     1       2.939   8.413   0.296  0.00  0.00    +0.000 HD
ATOM     12  H   UNL     1       4.171   9.035  -0.825  0.00  0.00    +0.000 HD
ENDBRANCH   8   9
ENDBRANCH   4   8
ENDBRANCH   1   4
BRANCH   1  13
ATOM     13  C   UNL     1       6.577  11.307  -0.725  0.00  0.00    +0.000 C 
ATOM     14  C   UNL     1       7.454  10.315  -0.475  0.00  0.00    +0.000 C 
ATOM     15  H   UNL     1       6.543  11.721  -1.731  0.00  0.00    +0.000 HD
BRANCH  14  16
ATOM     16  C   UNL     1       8.341   9.789  -1.570  0.00  0.00    +0.000 C 
ATOM     17  H   UNL     1       7.838   9.869  -2.539  0.00  0.00    +0.000 HD
ATOM     18  H   UNL     1       8.581   8.735  -1.389  0.00  0.00    +0.000 HD
ATOM     19  H   UNL     1       9.287  10.336  -1.642  0.00  0.00    +0.000 HD
ENDBRANCH  14  16
BRANCH  14  20
ATOM     20  C   UNL     1       7.653   9.654   0.860  0.00  0.00    +0.000 C 
ATOM     21  H   UNL     1       7.484   8.575   0.834  0.00  0.00    +0.000 HD
ATOM     22  H   UNL     1       6.954  10.070   1.593  0.00  0.00    +0.000 HD
ATOM     23  H   UNL     1       8.673   9.827   1.217  0.00  0.00    +0.000 HD
ENDBRANCH  14  20
ENDBRANCH   1  13
TORSDOF 6
ENDMDL
MODEL 2
REMARK VINA RESULT:    -4.501     13.040     14.058
REMARK INTER + INTRA:          -5.857
REMARK INTER:                  -5.491
REMARK INTRA:                  -0.366
REMARK UNBOUND:                -0.172
REMARK  Name = 9862
REMARK  6 active torsions:
REMARK  status: ('A' for Active; 'I' for Inactive)
REMARK    1  A    between atoms: C_2  and  C_3
REMARK    2  A    between atoms: C_2  and  C_4
REMARK    3  A    between atoms: C_3  and  C_6
REMARK    4  A    between atoms: C_5  and  C_7
REMARK    5  A    between atoms: C_5  and  C_8
REMARK    6  A    between atoms: C_6  and  C_9
REMARK                            x       y       z     vdW  Elec       q    Type
REMARK                         _______ _______ _______ _____ _____    ______ ____
ROOT
ATOM      1  C   UNL     1      -2.622   9.901 -10.257  0.00  0.00    +0.000 C 
ATOM      2  H   UNL     1      -3.026  10.820  -9.817  0.00  0.00    +0.000 HD
ATOM      3  H   UNL     1      -3.154   9.775 -11.208  0.00  0.00    +0.000 HD
ENDROOT
BRANCH   1   4
ATOM      4  C   UNL     1      -1.124  10.044 -10.510  0.00  0.00    +0.000 C 
ATOM      5  H   UNL     1      -0.566   9.321  -9.902  0.00  0.00    +0.000 HD
ATOM      6  H   UNL     1      -0.790  11.052 -10.240  0.00  0.00    +0.000 HD
BRANCH   4   8
ATOM      7  O   UNL     1      -0.745  10.709 -12.804  0.00  0.00    +0.000 OA
ATOM      8  C   UNL     1      -0.754   9.810 -11.964  0.00  0.00    +0.000 C 
BRANCH   8   9
ATOM      9  C   UNL     1      -0.390   8.396 -12.338  0.00  0.00    +0.000 C 
ATOM     10  H   UNL     1      -0.583   8.238 -13.402  0.00  0.00    +0.000 HD
ATOM     11  H   UNL     1       0.672   8.224 -12.142  0.00  0.00    +0.000 HD
ATOM     12  H   UNL     1      -0.978   7.696 -11.739  0.00  0.00    +0.000 HD
ENDBRANCH   8   9
ENDBRANCH   4   8
ENDBRANCH   1   4
BRANCH   1  13
ATOM     13  C   UNL     1      -2.916   8.712  -9.386  0.00  0.00    +0.000 C 
ATOM     14  C   UNL     1      -3.345   7.495  -9.772  0.00  0.00    +0.000 C 
ATOM     15  H   UNL     1      -2.743   8.883  -8.325  0.00  0.00    +0.000 HD
BRANCH  14  16
ATOM     16  C   UNL     1      -3.555   6.404  -8.757  0.00  0.00    +0.000 C 
ATOM     17  H   UNL     1      -3.170   6.714  -7.781  0.00  0.00    +0.000 HD
ATOM     18  H   UNL     1      -3.030   5.494  -9.065  0.00  0.00    +0.000 HD
ATOM     19  H   UNL     1      -4.613   6.149  -8.630  0.00  0.00    +0.000 HD
ENDBRANCH  14  16
BRANCH  14  20
ATOM     20  C   UNL     1      -3.661   7.098 -11.186  0.00  0.00    +0.000 C 
ATOM     21  H   UNL     1      -4.319   7.808 -11.695  0.00  0.00    +0.000 HD
ATOM     22  H   UNL     1      -4.166   6.126 -11.201  0.00  0.00    +0.000 HD
ATOM     23  H   UNL     1      -2.739   7.017 -11.770  0.00  0.00    +0.000 HD
ENDBRANCH  14  20
ENDBRANCH   1  13
TORSDOF 6
ENDMDL
MODEL 3
REMARK VINA RESULT:    -4.185     13.780     14.670
REMARK INTER + INTRA:          -5.458
REMARK INTER:                  -5.241
REMARK INTRA:                  -0.217
REMARK UNBOUND:                -0.172
REMARK  Name = 9862
REMARK  6 active torsions:
REMARK  status: ('A' for Active; 'I' for Inactive)
REMARK    1  A    between atoms: C_2  and  C_3
REMARK    2  A    between atoms: C_2  and  C_4
REMARK    3  A    between atoms: C_3  and  C_6
REMARK    4  A    between atoms: C_5  and  C_7
REMARK    5  A    between atoms: C_5  and  C_8
REMARK    6  A    between atoms: C_6  and  C_9
REMARK                            x       y       z     vdW  Elec       q    Type
REMARK                         _______ _______ _______ _____ _____    ______ ____
ROOT
ATOM      1  C   UNL     1      -1.876   7.313 -12.430  0.00  0.00    +0.000 C 
ATOM      2  H   UNL     1      -2.554   8.071 -12.840  0.00  0.00    +0.000 HD
ATOM      3  H   UNL     1      -1.844   6.514 -13.181  0.00  0.00    +0.000 HD
ENDROOT
BRANCH   1   4
ATOM      4  C   UNL     1      -0.481   7.897 -12.228  0.00  0.00    +0.000 C 
ATOM      5  H   UNL     1       0.282   7.141 -12.449  0.00  0.00    +0.000 HD
ATOM      6  H   UNL     1      -0.354   8.222 -11.188  0.00  0.00    +0.000 HD
BRANCH   4   8
ATOM      7  O   UNL     1       0.444   9.026 -14.156  0.00  0.00    +0.000 OA
ATOM      8  C   UNL     1      -0.217   9.097 -13.120  0.00  0.00    +0.000 C 
BRANCH   8   9
ATOM      9  C   UNL     1      -0.817  10.404 -12.670  0.00  0.00    +0.000 C 
ATOM     10  H   UNL     1      -0.574  10.575 -11.618  0.00  0.00    +0.000 HD
ATOM     11  H   UNL     1      -0.406  11.224 -13.266  0.00  0.00    +0.000 HD
ATOM     12  H   UNL     1      -1.901  10.376 -12.807  0.00  0.00    +0.000 HD
ENDBRANCH   8   9
ENDBRANCH   4   8
ENDBRANCH   1   4
BRANCH   1  13
ATOM     13  C   UNL     1      -2.418   6.741 -11.150  0.00  0.00    +0.000 C 
ATOM     14  C   UNL     1      -2.888   7.413 -10.081  0.00  0.00    +0.000 C 
ATOM     15  H   UNL     1      -2.427   5.653 -11.117  0.00  0.00    +0.000 HD
BRANCH  14  16
ATOM     16  C   UNL     1      -3.428   6.670  -8.890  0.00  0.00    +0.000 C 
ATOM     17  H   UNL     1      -3.369   7.295  -7.994  0.00  0.00    +0.000 HD
ATOM     18  H   UNL     1      -2.846   5.758  -8.717  0.00  0.00    +0.000 HD
ATOM     19  H   UNL     1      -4.475   6.375  -9.021  0.00  0.00    +0.000 HD
ENDBRANCH  14  16
BRANCH  14  20
ATOM     20  C   UNL     1      -2.919   8.910  -9.948  0.00  0.00    +0.000 C 
ATOM     21  H   UNL     1      -3.046   9.247  -8.916  0.00  0.00    +0.000 HD
ATOM     22  H   UNL     1      -3.755   9.321 -10.524  0.00  0.00    +0.000 HD
ATOM     23  H   UNL     1      -1.989   9.342 -10.331  0.00  0.00    +0.000 HD
ENDBRANCH  14  20
ENDBRANCH   1  13
TORSDOF 6
ENDMDL
MODEL 4
REMARK VINA RESULT:    -4.088      5.082      6.374
REMARK INTER + INTRA:          -5.335
REMARK INTER:                  -5.154
REMARK INTRA:                  -0.181
REMARK UNBOUND:                -0.172
REMARK  Name = 9862
REMARK  6 active torsions:
REMARK  status: ('A' for Active; 'I' for Inactive)
REMARK    1  A    between atoms: C_2  and  C_3
REMARK    2  A    between atoms: C_2  and  C_4
REMARK    3  A    between atoms: C_3  and  C_6
REMARK    4  A    between atoms: C_5  and  C_7
REMARK    5  A    between atoms: C_5  and  C_8
REMARK    6  A    between atoms: C_6  and  C_9
REMARK                            x       y       z     vdW  Elec       q    Type
REMARK                         _______ _______ _______ _____ _____    ______ ____
ROOT
ATOM      1  C   UNL     1       7.528   8.440   5.450  0.00  0.00    +0.000 C 
ATOM      2  H   UNL     1       8.591   8.418   5.717  0.00  0.00    +0.000 HD
ATOM      3  H   UNL     1       7.132   7.462   5.750  0.00  0.00    +0.000 HD
ENDROOT
BRANCH   1   4
ATOM      4  C   UNL     1       6.810   9.552   6.211  0.00  0.00    +0.000 C 
ATOM      5  H   UNL     1       6.089   9.122   6.917  0.00  0.00    +0.000 HD
ATOM      6  H   UNL     1       6.266  10.197   5.512  0.00  0.00    +0.000 HD
BRANCH   4   8
ATOM      7  O   UNL     1       7.758  11.657   6.929  0.00  0.00    +0.000 OA
ATOM      8  C   UNL     1       7.766  10.429   7.000  0.00  0.00    +0.000 C 
BRANCH   8   9
ATOM      9  C   UNL     1       8.743   9.709   7.894  0.00  0.00    +0.000 C 
ATOM     10  H   UNL     1       9.163   8.852   7.361  0.00  0.00    +0.000 HD
ATOM     11  H   UNL     1       9.556  10.386   8.172  0.00  0.00    +0.000 HD
ATOM     12  H   UNL     1       8.233   9.377   8.801  0.00  0.00    +0.000 HD
ENDBRANCH   8   9
ENDBRANCH   4   8
ENDBRANCH   1   4
BRANCH   1  13
ATOM     13  C   UNL     1       7.348   8.592   3.966  0.00  0.00    +0.000 C 
ATOM     14  C   UNL     1       6.533   7.887   3.159  0.00  0.00    +0.000 C 
ATOM     15  H   UNL     1       7.955   9.380   3.522  0.00  0.00    +0.000 HD
BRANCH  14  16
ATOM     16  C   UNL     1       6.455   8.203   1.689  0.00  0.00    +0.000 C 
ATOM     17  H   UNL     1       7.265   7.701   1.150  0.00  0.00    +0.000 HD
ATOM     18  H   UNL     1       6.547   9.282   1.529  0.00  0.00    +0.000 HD
ATOM     19  H   UNL     1       5.509   7.881   1.242  0.00  0.00    +0.000 HD
ENDBRANCH  14  16
BRANCH  14  20
ATOM     20  C   UNL     1       5.654   6.750   3.598  0.00  0.00    +0.000 C 
ATOM     21  H   UNL     1       5.821   5.832   3.030  0.00  0.00    +0.000 HD
ATOM     22  H   UNL     1       4.599   7.019   3.470  0.00  0.00    +0.000 HD
ATOM     23  H   UNL     1       5.827   6.527   4.656  0.00  0.00    +0.000 HD
ENDBRANCH  14  20
ENDBRANCH   1  13
TORSDOF 6
ENDMDL
MODEL 5
REMARK VINA RESULT:    -3.960     13.966     15.619
REMARK INTER + INTRA:          -5.174
REMARK INTER:                  -5.109
REMARK INTRA:                  -0.065
REMARK UNBOUND:                -0.172
REMARK  Name = 9862
REMARK  6 active torsions:
REMARK  status: ('A' for Active; 'I' for Inactive)
REMARK    1  A    between atoms: C_2  and  C_3
REMARK    2  A    between atoms: C_2  and  C_4
REMARK    3  A    between atoms: C_3  and  C_6
REMARK    4  A    between atoms: C_5  and  C_7
REMARK    5  A    between atoms: C_5  and  C_8
REMARK    6  A    between atoms: C_6  and  C_9
REMARK                            x       y       z     vdW  Elec       q    Type
REMARK                         _______ _______ _______ _____ _____    ______ ____
ROOT
ATOM      1  C   UNL     1      -9.113  11.289   7.025  0.00  0.00    +0.000 C 
ATOM      2  H   UNL     1      -9.872  11.234   6.235  0.00  0.00    +0.000 HD
ATOM      3  H   UNL     1      -9.639  11.671   7.908  0.00  0.00    +0.000 HD
ENDROOT
BRANCH   1   4
ATOM      4  C   UNL     1      -8.542   9.903   7.313  0.00  0.00    +0.000 C 
ATOM      5  H   UNL     1      -7.451   9.911   7.201  0.00  0.00    +0.000 HD
ATOM      6  H   UNL     1      -8.956   9.170   6.610  0.00  0.00    +0.000 HD
BRANCH   4   8
ATOM      7  O   UNL     1     -10.003   9.401   9.174  0.00  0.00    +0.000 OA
ATOM      8  C   UNL     1      -8.860   9.423   8.718  0.00  0.00    +0.000 C 
BRANCH   8   9
ATOM      9  C   UNL     1      -7.687   8.966   9.545  0.00  0.00    +0.000 C 
ATOM     10  H   UNL     1      -7.618   9.574  10.451  0.00  0.00    +0.000 HD
ATOM     11  H   UNL     1      -7.822   7.919   9.832  0.00  0.00    +0.000 HD
ATOM     12  H   UNL     1      -6.769   9.057   8.960  0.00  0.00    +0.000 HD
ENDBRANCH   8   9
ENDBRANCH   4   8
ENDBRANCH   1   4
BRANCH   1  13
ATOM     13  C   UNL     1      -8.026  12.260   6.661  0.00  0.00    +0.000 C 
ATOM     14  C   UNL     1      -7.308  12.305   5.522  0.00  0.00    +0.000 C 
ATOM     15  H   UNL     1      -7.824  13.010   7.425  0.00  0.00    +0.000 HD
BRANCH  14  16
ATOM     16  C   UNL     1      -6.275  13.379   5.314  0.00  0.00    +0.000 C 
ATOM     17  H   UNL     1      -5.356  13.133   5.856  0.00  0.00    +0.000 HD
ATOM     18  H   UNL     1      -6.649  14.341   5.682  0.00  0.00    +0.000 HD
ATOM     19  H   UNL     1      -6.012  13.508   4.259  0.00  0.00    +0.000 HD
ENDBRANCH  14  16
BRANCH  14  20
ATOM     20  C   UNL     1      -7.435  11.334   4.383  0.00  0.00    +0.000 C 
ATOM     21  H   UNL     1      -7.674  10.319   4.708  0.00  0.00    +0.000 HD
ATOM     22  H   UNL     1      -6.492  11.280   3.828  0.00  0.00    +0.000 HD
ATOM     23  H   UNL     1      -8.222  11.661   3.695  0.00  0.00    +0.000 HD
ENDBRANCH  14  20
ENDBRANCH   1  13
TORSDOF 6
ENDMDL
MODEL 6
REMARK VINA RESULT:    -3.931     21.329     23.407
REMARK INTER + INTRA:          -5.137
REMARK INTER:                  -4.887
REMARK INTRA:                  -0.250
REMARK UNBOUND:                -0.172
REMARK  Name = 9862
REMARK  6 active torsions:
REMARK  status: ('A' for Active; 'I' for Inactive)
REMARK    1  A    between atoms: C_2  and  C_3
REMARK    2  A    between atoms: C_2  and  C_4
REMARK    3  A    between atoms: C_3  and  C_6
REMARK    4  A    between atoms: C_5  and  C_7
REMARK    5  A    between atoms: C_5  and  C_8
REMARK    6  A    between atoms: C_6  and  C_9
REMARK                            x       y       z     vdW  Elec       q    Type
REMARK                         _______ _______ _______ _____ _____    ______ ____
ROOT
ATOM      1  C   UNL     1      -9.183   9.015  16.948  0.00  0.00    +0.000 C 
ATOM      2  H   UNL     1      -9.614   9.182  15.954  0.00  0.00    +0.000 HD
ATOM      3  H   UNL     1      -9.087   7.927  17.046  0.00  0.00    +0.000 HD
ENDROOT
BRANCH   1   4
ATOM      4  C   UNL     1      -7.808   9.673  17.051  0.00  0.00    +0.000 C 
ATOM      5  H   UNL     1      -7.067   9.090  16.491  0.00  0.00    +0.000 HD
ATOM      6  H   UNL     1      -7.490   9.720  18.099  0.00  0.00    +0.000 HD
BRANCH   4   8
ATOM      7  O   UNL     1      -7.901  11.339  15.301  0.00  0.00    +0.000 OA
ATOM      8  C   UNL     1      -7.797  11.088  16.501  0.00  0.00    +0.000 C 
BRANCH   8   9
ATOM      9  C   UNL     1      -7.652  12.193  17.515  0.00  0.00    +0.000 C 
ATOM     10  H   UNL     1      -6.665  12.652  17.417  0.00  0.00    +0.000 HD
ATOM     11  H   UNL     1      -8.416  12.956  17.341  0.00  0.00    +0.000 HD
ATOM     12  H   UNL     1      -7.781  11.786  18.521  0.00  0.00    +0.000 HD
ENDBRANCH   8   9
ENDBRANCH   4   8
ENDBRANCH   1   4
BRANCH   1  13
ATOM     13  C   UNL     1     -10.105   9.511  18.026  0.00  0.00    +0.000 C 
ATOM     14  C   UNL     1     -10.312   8.974  19.244  0.00  0.00    +0.000 C 
ATOM     15  H   UNL     1     -10.648  10.417  17.765  0.00  0.00    +0.000 HD
BRANCH  14  16
ATOM     16  C   UNL     1     -11.254   9.631  20.216  0.00  0.00    +0.000 C 
ATOM     17  H   UNL     1     -10.742  10.431  20.760  0.00  0.00    +0.000 HD
ATOM     18  H   UNL     1     -11.621   8.897  20.942  0.00  0.00    +0.000 HD
ATOM     19  H   UNL     1     -12.126  10.071  19.721  0.00  0.00    +0.000 HD
ENDBRANCH  14  16
BRANCH  14  20
ATOM     20  C   UNL     1      -9.670   7.715  19.753  0.00  0.00    +0.000 C 
ATOM     21  H   UNL     1      -9.157   7.850  20.709  0.00  0.00    +0.000 HD
ATOM     22  H   UNL     1      -8.923   7.357  19.036  0.00  0.00    +0.000 HD
ATOM     23  H   UNL     1     -10.426   6.933  19.884  0.00  0.00    +0.000 HD
ENDBRANCH  14  20
ENDBRANCH   1  13
TORSDOF 6
ENDMDL
MODEL 7
REMARK VINA RESULT:    -3.888     33.072     34.439
REMARK INTER + INTRA:          -5.084
REMARK INTER:                  -4.889
REMARK INTRA:                  -0.194
REMARK UNBOUND:                -0.172
REMARK  Name = 9862
REMARK  6 active torsions:
REMARK  status: ('A' for Active; 'I' for Inactive)
REMARK    1  A    between atoms: C_2  and  C_3
REMARK    2  A    between atoms: C_2  and  C_4
REMARK    3  A    between atoms: C_3  and  C_6
REMARK    4  A    between atoms: C_5  and  C_7
REMARK    5  A    between atoms: C_5  and  C_8
REMARK    6  A    between atoms: C_6  and  C_9
REMARK                            x       y       z     vdW  Elec       q    Type
REMARK                         _______ _______ _______ _____ _____    ______ ____
ROOT
ATOM      1  C   UNL     1      -4.616  -6.033  29.248  0.00  0.00    +0.000 C 
ATOM      2  H   UNL     1      -5.361  -5.285  29.545  0.00  0.00    +0.000 HD
ATOM      3  H   UNL     1      -4.229  -6.447  30.188  0.00  0.00    +0.000 HD
ENDROOT
BRANCH   1   4
ATOM      4  C   UNL     1      -5.269  -7.136  28.419  0.00  0.00    +0.000 C 
ATOM      5  H   UNL     1      -4.947  -7.065  27.373  0.00  0.00    +0.000 HD
ATOM      6  H   UNL     1      -6.360  -7.038  28.452  0.00  0.00    +0.000 HD
BRANCH   4   8
ATOM      7  O   UNL     1      -5.001  -8.851  30.103  0.00  0.00    +0.000 OA
ATOM      8  C   UNL     1      -4.916  -8.526  28.919  0.00  0.00    +0.000 C 
BRANCH   8   9
ATOM      9  C   UNL     1      -4.450  -9.508  27.876  0.00  0.00    +0.000 C 
ATOM     10  H   UNL     1      -4.646  -9.104  26.879  0.00  0.00    +0.000 HD
ATOM     11  H   UNL     1      -3.375  -9.679  27.983  0.00  0.00    +0.000 HD
ATOM     12  H   UNL     1      -4.973 -10.458  28.007  0.00  0.00    +0.000 HD
ENDBRANCH   8   9
ENDBRANCH   4   8
ENDBRANCH   1   4
BRANCH   1  13
ATOM     13  C   UNL     1      -3.477  -5.395  28.505  0.00  0.00    +0.000 C 
ATOM     14  C   UNL     1      -3.494  -4.250  27.795  0.00  0.00    +0.000 C 
ATOM     15  H   UNL     1      -2.538  -5.941  28.575  0.00  0.00    +0.000 HD
BRANCH  14  16
ATOM     16  C   UNL     1      -2.239  -3.739  27.141  0.00  0.00    +0.000 C 
ATOM     17  H   UNL     1      -2.473  -3.294  26.169  0.00  0.00    +0.000 HD
ATOM     18  H   UNL     1      -1.532  -4.561  26.987  0.00  0.00    +0.000 HD
ATOM     19  H   UNL     1      -1.735  -2.976  27.743  0.00  0.00    +0.000 HD
ENDBRANCH  14  16
BRANCH  14  20
ATOM     20  C   UNL     1      -4.707  -3.392  27.572  0.00  0.00    +0.000 C 
ATOM     21  H   UNL     1      -5.350  -3.757  26.767  0.00  0.00    +0.000 HD
ATOM     22  H   UNL     1      -4.403  -2.374  27.302  0.00  0.00    +0.000 HD
ATOM     23  H   UNL     1      -5.307  -3.342  28.486  0.00  0.00    +0.000 HD
ENDBRANCH  14  20
ENDBRANCH   1  13
TORSDOF 6
ENDMDL
MODEL 8
REMARK VINA RESULT:    -3.848     13.766     14.616
REMARK INTER + INTRA:          -5.032
REMARK INTER:                  -4.656
REMARK INTRA:                  -0.376
REMARK UNBOUND:                -0.172
REMARK  Name = 9862
REMARK  6 active torsions:
REMARK  status: ('A' for Active; 'I' for Inactive)
REMARK    1  A    between atoms: C_2  and  C_3
REMARK    2  A    between atoms: C_2  and  C_4
REMARK    3  A    between atoms: C_3  and  C_6
REMARK    4  A    between atoms: C_5  and  C_7
REMARK    5  A    between atoms: C_5  and  C_8
REMARK    6  A    between atoms: C_6  and  C_9
REMARK                            x       y       z     vdW  Elec       q    Type
REMARK                         _______ _______ _______ _____ _____    ______ ____
ROOT
ATOM      1  C   UNL     1      -1.708   6.769 -11.369  0.00  0.00    +0.000 C 
ATOM      2  H   UNL     1      -0.770   7.231 -11.039  0.00  0.00    +0.000 HD
ATOM      3  H   UNL     1      -1.589   5.696 -11.173  0.00  0.00    +0.000 HD
ENDROOT
BRANCH   1   4
ATOM      4  C   UNL     1      -2.885   7.320 -10.568  0.00  0.00    +0.000 C 
ATOM      5  H   UNL     1      -3.057   6.705  -9.677  0.00  0.00    +0.000 HD
ATOM      6  H   UNL     1      -3.796   7.307 -11.178  0.00  0.00    +0.000 HD
BRANCH   4   8
ATOM      7  O   UNL     1      -2.084   9.030  -9.057  0.00  0.00    +0.000 OA
ATOM      8  C   UNL     1      -2.659   8.749 -10.109  0.00  0.00    +0.000 C 
BRANCH   8   9
ATOM      9  C   UNL     1      -3.180   9.830 -11.020  0.00  0.00    +0.000 C 
ATOM     10  H   UNL     1      -3.315   9.426 -12.027  0.00  0.00    +0.000 HD
ATOM     11  H   UNL     1      -4.145  10.190 -10.652  0.00  0.00    +0.000 HD
ATOM     12  H   UNL     1      -2.475  10.664 -11.039  0.00  0.00    +0.000 HD
ENDBRANCH   8   9
ENDBRANCH   4   8
ENDBRANCH   1   4
BRANCH   1  13
ATOM     13  C   UNL     1      -1.915   6.963 -12.845  0.00  0.00    +0.000 C 
ATOM     14  C   UNL     1      -1.289   7.837 -13.656  0.00  0.00    +0.000 C 
ATOM     15  H   UNL     1      -2.658   6.299 -13.281  0.00  0.00    +0.000 HD
BRANCH  14  16
ATOM     16  C   UNL     1      -1.600   7.868 -15.128  0.00  0.00    +0.000 C 
ATOM     17  H   UNL     1      -2.497   7.278 -15.339  0.00  0.00    +0.000 HD
ATOM     18  H   UNL     1      -0.766   7.450 -15.700  0.00  0.00    +0.000 HD
ATOM     19  H   UNL     1      -1.778   8.884 -15.496  0.00  0.00    +0.000 HD
ENDBRANCH  14  16
BRANCH  14  20
ATOM     20  C   UNL     1      -0.263   8.843 -13.215  0.00  0.00    +0.000 C 
ATOM     21  H   UNL     1      -0.034   9.587 -13.982  0.00  0.00    +0.000 HD
ATOM     22  H   UNL     1       0.677   8.338 -12.968  0.00  0.00    +0.000 HD
ATOM     23  H   UNL     1      -0.615   9.374 -12.325  0.00  0.00    +0.000 HD
ENDBRANCH  14  20
ENDBRANCH   1  13
TORSDOF 6
ENDMDL
MODEL 9
REMARK VINA RESULT:    -3.844     17.135     18.074
REMARK INTER + INTRA:          -5.027
REMARK INTER:                  -4.898
REMARK INTRA:                  -0.129
REMARK UNBOUND:                -0.172
REMARK  Name = 9862
REMARK  6 active torsions:
REMARK  status: ('A' for Active; 'I' for Inactive)
REMARK    1  A    between atoms: C_2  and  C_3
REMARK    2  A    between atoms: C_2  and  C_4
REMARK    3  A    between atoms: C_3  and  C_6
REMARK    4  A    between atoms: C_5  and  C_7
REMARK    5  A    between atoms: C_5  and  C_8
REMARK    6  A    between atoms: C_6  and  C_9
REMARK                            x       y       z     vdW  Elec       q    Type
REMARK                         _______ _______ _______ _____ _____    ______ ____
ROOT
ATOM      1  C   UNL     1      -0.379  -0.065 -12.792  0.00  0.00    +0.000 C 
ATOM      2  H   UNL     1      -0.954   0.608 -13.439  0.00  0.00    +0.000 HD
ATOM      3  H   UNL     1      -0.376  -1.033 -13.309  0.00  0.00    +0.000 HD
ENDROOT
BRANCH   1   4
ATOM      4  C   UNL     1       1.051   0.444 -12.628  0.00  0.00    +0.000 C 
ATOM      5  H   UNL     1       1.274   0.608 -11.567  0.00  0.00    +0.000 HD
ATOM      6  H   UNL     1       1.175   1.395 -13.158  0.00  0.00    +0.000 HD
BRANCH   4   8
ATOM      7  O   UNL     1       2.027  -1.741 -12.976  0.00  0.00    +0.000 OA
ATOM      8  C   UNL     1       2.081  -0.527 -13.175  0.00  0.00    +0.000 C 
BRANCH   8   9
ATOM      9  C   UNL     1       3.196   0.076 -13.990  0.00  0.00    +0.000 C 
ATOM     10  H   UNL     1       4.106   0.123 -13.387  0.00  0.00    +0.000 HD
ATOM     11  H   UNL     1       3.386  -0.543 -14.871  0.00  0.00    +0.000 HD
ATOM     12  H   UNL     1       2.908   1.078 -14.317  0.00  0.00    +0.000 HD
ENDBRANCH   8   9
ENDBRANCH   4   8
ENDBRANCH   1   4
BRANCH   1  13
ATOM     13  C   UNL     1      -1.052  -0.239 -11.460  0.00  0.00    +0.000 C 
ATOM     14  C   UNL     1      -2.368  -0.398 -11.217  0.00  0.00    +0.000 C 
ATOM     15  H   UNL     1      -0.369  -0.241 -10.613  0.00  0.00    +0.000 HD
BRANCH  14  16
ATOM     16  C   UNL     1      -2.864  -0.595  -9.810  0.00  0.00    +0.000 C 
ATOM     17  H   UNL     1      -3.442   0.276  -9.486  0.00  0.00    +0.000 HD
ATOM     18  H   UNL     1      -2.019  -0.726  -9.126  0.00  0.00    +0.000 HD
ATOM     19  H   UNL     1      -3.509  -1.475  -9.713  0.00  0.00    +0.000 HD
ENDBRANCH  14  16
BRANCH  14  20
ATOM     20  C   UNL     1      -3.447  -0.390 -12.263  0.00  0.00    +0.000 C 
ATOM     21  H   UNL     1      -4.246  -1.107 -12.061  0.00  0.00    +0.000 HD
ATOM     22  H   UNL     1      -3.025  -0.646 -13.241  0.00  0.00    +0.000 HD
ATOM     23  H   UNL     1      -3.898   0.605 -12.331  0.00  0.00    +0.000 HD
ENDBRANCH  14  20
ENDBRANCH   1  13
TORSDOF 6
ENDMDL
MODEL 10
REMARK VINA RESULT:    -3.715     16.470     17.382
REMARK INTER + INTRA:          -4.864
REMARK INTER:                  -4.692
REMARK INTRA:                  -0.172
REMARK UNBOUND:                -0.172
REMARK  Name = 9862
REMARK  6 active torsions:
REMARK  status: ('A' for Active; 'I' for Inactive)
REMARK    1  A    between atoms: C_2  and  C_3
REMARK    2  A    between atoms: C_2  and  C_4
REMARK    3  A    between atoms: C_3  and  C_6
REMARK    4  A    between atoms: C_5  and  C_7
REMARK    5  A    between atoms: C_5  and  C_8
REMARK    6  A    between atoms: C_6  and  C_9
REMARK                            x       y       z     vdW  Elec       q    Type
REMARK                         _______ _______ _______ _____ _____    ______ ____
ROOT
ATOM      1  C   UNL     1      -9.043   6.726  -5.422  0.00  0.00    +0.000 C 
ATOM      2  H   UNL     1      -8.593   6.870  -4.433  0.00  0.00    +0.000 HD
ATOM      3  H   UNL     1      -8.202   6.532  -6.099  0.00  0.00    +0.000 HD
ENDROOT
BRANCH   1   4
ATOM      4  C   UNL     1      -9.991   5.530  -5.410  0.00  0.00    +0.000 C 
ATOM      5  H   UNL     1     -10.815   5.691  -6.115  0.00  0.00    +0.000 HD
ATOM      6  H   UNL     1     -10.416   5.396  -4.408  0.00  0.00    +0.000 HD
BRANCH   4   8
ATOM      7  O   UNL     1      -9.123   3.892  -6.962  0.00  0.00    +0.000 OA
ATOM      8  C   UNL     1      -9.298   4.234  -5.794  0.00  0.00    +0.000 C 
BRANCH   8   9
ATOM      9  C   UNL     1      -8.825   3.371  -4.653  0.00  0.00    +0.000 C 
ATOM     10  H   UNL     1      -9.561   3.397  -3.845  0.00  0.00    +0.000 HD
ATOM     11  H   UNL     1      -8.710   2.338  -4.994  0.00  0.00    +0.000 HD
ATOM     12  H   UNL     1      -7.859   3.734  -4.295  0.00  0.00    +0.000 HD
ENDBRANCH   8   9
ENDBRANCH   4   8
ENDBRANCH   1   4
BRANCH   1  13
ATOM     13  C   UNL     1      -9.746   7.973  -5.881  0.00  0.00    +0.000 C 
ATOM     14  C   UNL     1      -9.990   8.362  -7.148  0.00  0.00    +0.000 C 
ATOM     15  H   UNL     1     -10.095   8.610  -5.072  0.00  0.00    +0.000 HD
BRANCH  14  16
ATOM     16  C   UNL     1     -10.745   9.634  -7.422  0.00  0.00    +0.000 C 
ATOM     17  H   UNL     1     -11.042  10.110  -6.482  0.00  0.00    +0.000 HD
ATOM     18  H   UNL     1     -11.647   9.421  -8.004  0.00  0.00    +0.000 HD
ATOM     19  H   UNL     1     -10.150  10.360  -7.987  0.00  0.00    +0.000 HD
ENDBRANCH  14  16
BRANCH  14  20
ATOM     20  C   UNL     1      -9.553   7.619  -8.379  0.00  0.00    +0.000 C 
ATOM     21  H   UNL     1     -10.099   6.685  -8.533  0.00  0.00    +0.000 HD
ATOM     22  H   UNL     1      -8.491   7.361  -8.306  0.00  0.00    +0.000 HD
ATOM     23  H   UNL     1      -9.697   8.244  -9.266  0.00  0.00    +0.000 HD
ENDBRANCH  14  20
ENDBRANCH   1  13
TORSDOF 6
ENDMDL
