MODEL 1
REMARK VINA RESULT:    -6.109      0.000      0.000
REMARK INTER + INTRA:          -9.099
REMARK INTER:                  -8.286
REMARK INTRA:                  -0.813
REMARK UNBOUND:                -0.668
REMARK  Name = 5365976
REMARK  8 active torsions:
REMARK  status: ('A' for Active; 'I' for Inactive)
REMARK    1  A    between atoms: C_2  and  C_7
REMARK    2  A    between atoms: C_2  and  C_8
REMARK    3  A    between atoms: C_3  and  C_10
REMARK    4  A    between atoms: C_6  and  C_11
REMARK    5  A    between atoms: C_12  and  C_13
REMARK    6  A    between atoms: C_13  and  C_14
REMARK    7  A    between atoms: C_14  and  C_15
REMARK    8  A    between atoms: C_15  and  C_16
REMARK                            x       y       z     vdW  Elec       q    Type
REMARK                         _______ _______ _______ _____ _____    ______ ____
ROOT
ATOM      1  C   UNL     1       9.852  11.334   5.724  0.00  0.00    +0.000 C 
ATOM      2  C   UNL     1       9.057  10.269   6.559  0.00  0.00    +0.000 C 
ATOM      3  C   UNL     1       9.155  12.709   5.851  0.00  0.00    +0.000 C 
ATOM      4  C   UNL     1       9.001  13.173   7.302  0.00  0.00    +0.000 C 
ATOM      5  C   UNL     1       8.728  10.762   7.963  0.00  0.00    +0.000 C 
ATOM      6  C   UNL     1       8.704  12.070   8.273  0.00  0.00    +0.000 C 
ATOM      7  H   UNL     1       9.723   9.400   6.669  0.00  0.00    +0.000 HD
ATOM      8  H   UNL     1       8.160  12.663   5.390  0.00  0.00    +0.000 HD
ATOM      9  H   UNL     1       9.708  13.473   5.288  0.00  0.00    +0.000 HD
ATOM     10  H   UNL     1       8.206  13.925   7.352  0.00  0.00    +0.000 HD
ATOM     11  H   UNL     1       9.923  13.673   7.625  0.00  0.00    +0.000 HD
ATOM     12  H   UNL     1       8.478  12.378   9.290  0.00  0.00    +0.000 HD
ENDROOT
BRANCH   1  13
ATOM     13  C   UNL     1      11.308  11.425   6.244  0.00  0.00    +0.000 C 
ATOM     14  H   UNL     1      11.988  10.847   5.608  0.00  0.00    +0.000 HD
ATOM     15  H   UNL     1      11.684  12.453   6.275  0.00  0.00    +0.000 HD
ATOM     16  H   UNL     1      11.385  11.023   7.261  0.00  0.00    +0.000 HD
ENDBRANCH   1  13
BRANCH   1  17
ATOM     17  C   UNL     1       9.938  10.948   4.231  0.00  0.00    +0.000 C 
ATOM     18  H   UNL     1       8.997  10.501   3.888  0.00  0.00    +0.000 HD
ATOM     19  H   UNL     1      10.135  11.827   3.607  0.00  0.00    +0.000 HD
ATOM     20  H   UNL     1      10.727  10.213   4.041  0.00  0.00    +0.000 HD
ENDBRANCH   1  17
BRANCH   2  21
ATOM     21  C   UNL     1       7.789   9.813   5.883  0.00  0.00    +0.000 C 
ATOM     22  C   UNL     1       7.495   8.527   5.661  0.00  0.00    +0.000 C 
ATOM     23  H   UNL     1       7.091  10.589   5.573  0.00  0.00    +0.000 HD
ATOM     24  H   UNL     1       8.167   7.730   5.959  0.00  0.00    +0.000 HD
BRANCH  22  26
ATOM     25  O   UNL     1       5.127   8.467   5.433  0.00  0.00    +0.000 OA
ATOM     26  C   UNL     1       6.223   8.139   4.986  0.00  0.00    +0.000 C 
BRANCH  26  27
ATOM     27  C   UNL     1       6.382   7.312   3.721  0.00  0.00    +0.000 C 
ATOM     28  H   UNL     1       7.453   7.246   3.492  0.00  0.00    +0.000 HD
ATOM     29  H   UNL     1       6.006   6.301   3.924  0.00  0.00    +0.000 HD
BRANCH  27  30
ATOM     30  C   UNL     1       5.633   7.915   2.533  0.00  0.00    +0.000 C 
ATOM     31  H   UNL     1       4.947   8.697   2.884  0.00  0.00    +0.000 HD
ATOM     32  H   UNL     1       5.013   7.146   2.058  0.00  0.00    +0.000 HD
BRANCH  30  33
ATOM     33  C   UNL     1       6.584   8.461   1.509  0.00  0.00    +0.000 C 
ATOM     34  C   UNL     1       7.719   9.104   1.809  0.00  0.00    +0.000 C 
ATOM     35  H   UNL     1       6.318   8.336   0.464  0.00  0.00    +0.000 HD
ATOM     36  H   UNL     1       8.359   9.482   1.021  0.00  0.00    +0.000 HD
ATOM     37  H   UNL     1       8.027   9.263   2.837  0.00  0.00    +0.000 HD
ENDBRANCH  30  33
ENDBRANCH  27  30
ENDBRANCH  26  27
ENDBRANCH  22  26
ENDBRANCH   2  21
BRANCH   5  38
ATOM     38  C   UNL     1       8.444   9.710   9.000  0.00  0.00    +0.000 C 
ATOM     39  H   UNL     1       9.291   9.600   9.683  0.00  0.00    +0.000 HD
ATOM     40  H   UNL     1       8.252   8.730   8.550  0.00  0.00    +0.000 HD
ATOM     41  H   UNL     1       7.560   9.985   9.584  0.00  0.00    +0.000 HD
ENDBRANCH   5  38
TORSDOF 8
ENDMDL
MODEL 2
REMARK VINA RESULT:    -5.541     15.254     17.020
REMARK INTER + INTRA:          -8.314
REMARK INTER:                  -7.432
REMARK INTRA:                  -0.882
REMARK UNBOUND:                -0.668
REMARK  Name = 5365976
REMARK  8 active torsions:
REMARK  status: ('A' for Active; 'I' for Inactive)
REMARK    1  A    between atoms: C_2  and  C_7
REMARK    2  A    between atoms: C_2  and  C_8
REMARK    3  A    between atoms: C_3  and  C_10
REMARK    4  A    between atoms: C_6  and  C_11
REMARK    5  A    between atoms: C_12  and  C_13
REMARK    6  A    between atoms: C_13  and  C_14
REMARK    7  A    between atoms: C_14  and  C_15
REMARK    8  A    between atoms: C_15  and  C_16
REMARK                            x       y       z     vdW  Elec       q    Type
REMARK                         _______ _______ _______ _____ _____    ______ ____
ROOT
ATOM      1  C   UNL     1      -8.940  13.908   6.411  0.00  0.00    +0.000 C 
ATOM      2  C   UNL     1      -8.704  12.410   6.001  0.00  0.00    +0.000 C 
ATOM      3  C   UNL     1      -7.627  14.497   6.980  0.00  0.00    +0.000 C 
ATOM      4  C   UNL     1      -6.449  14.387   6.008  0.00  0.00    +0.000 C 
ATOM      5  C   UNL     1      -7.437  12.230   5.174  0.00  0.00    +0.000 C 
ATOM      6  C   UNL     1      -6.436  13.127   5.196  0.00  0.00    +0.000 C 
ATOM      7  H   UNL     1      -9.552  12.127   5.361  0.00  0.00    +0.000 HD
ATOM      8  H   UNL     1      -7.364  13.980   7.911  0.00  0.00    +0.000 HD
ATOM      9  H   UNL     1      -7.767  15.551   7.254  0.00  0.00    +0.000 HD
ATOM     10  H   UNL     1      -5.514  14.464   6.574  0.00  0.00    +0.000 HD
ATOM     11  H   UNL     1      -6.466  15.239   5.316  0.00  0.00    +0.000 HD
ATOM     12  H   UNL     1      -5.555  12.966   4.580  0.00  0.00    +0.000 HD
ENDROOT
BRANCH   1  13
ATOM     13  C   UNL     1      -9.397  14.722   5.175  0.00  0.00    +0.000 C 
ATOM     14  H   UNL     1     -10.213  14.212   4.650  0.00  0.00    +0.000 HD
ATOM     15  H   UNL     1      -9.750  15.725   5.434  0.00  0.00    +0.000 HD
ATOM     16  H   UNL     1      -8.573  14.843   4.462  0.00  0.00    +0.000 HD
ENDBRANCH   1  13
BRANCH   1  17
ATOM     17  C   UNL     1     -10.055  14.046   7.470  0.00  0.00    +0.000 C 
ATOM     18  H   UNL     1      -9.747  14.723   8.276  0.00  0.00    +0.000 HD
ATOM     19  H   UNL     1     -10.972  14.451   7.028  0.00  0.00    +0.000 HD
ATOM     20  H   UNL     1     -10.299  13.087   7.939  0.00  0.00    +0.000 HD
ENDBRANCH   1  17
BRANCH   2  21
ATOM     21  C   UNL     1      -8.664  11.474   7.182  0.00  0.00    +0.000 C 
ATOM     22  C   UNL     1      -9.497  10.437   7.327  0.00  0.00    +0.000 C 
ATOM     23  H   UNL     1      -7.907  11.669   7.939  0.00  0.00    +0.000 HD
ATOM     24  H   UNL     1     -10.261  10.214   6.589  0.00  0.00    +0.000 HD
BRANCH  22  26
ATOM     25  O   UNL     1     -10.389   9.304   9.219  0.00  0.00    +0.000 OA
ATOM     26  C   UNL     1      -9.409   9.545   8.519  0.00  0.00    +0.000 C 
BRANCH  26  27
ATOM     27  C   UNL     1      -8.033   8.967   8.801  0.00  0.00    +0.000 C 
ATOM     28  H   UNL     1      -8.096   7.877   8.696  0.00  0.00    +0.000 HD
ATOM     29  H   UNL     1      -7.339   9.351   8.042  0.00  0.00    +0.000 HD
BRANCH  27  30
ATOM     30  C   UNL     1      -7.526   9.325  10.197  0.00  0.00    +0.000 C 
ATOM     31  H   UNL     1      -7.330   8.408  10.769  0.00  0.00    +0.000 HD
ATOM     32  H   UNL     1      -8.304   9.872  10.744  0.00  0.00    +0.000 HD
BRANCH  30  33
ATOM     33  C   UNL     1      -6.298  10.184  10.129  0.00  0.00    +0.000 C 
ATOM     34  C   UNL     1      -6.320  11.522  10.142  0.00  0.00    +0.000 C 
ATOM     35  H   UNL     1      -5.340   9.679  10.048  0.00  0.00    +0.000 HD
ATOM     36  H   UNL     1      -5.395  12.085  10.081  0.00  0.00    +0.000 HD
ATOM     37  H   UNL     1      -7.250  12.074  10.212  0.00  0.00    +0.000 HD
ENDBRANCH  30  33
ENDBRANCH  27  30
ENDBRANCH  26  27
ENDBRANCH  22  26
ENDBRANCH   2  21
BRANCH   5  38
ATOM     38  C   UNL     1      -7.362  11.000   4.313  0.00  0.00    +0.000 C 
ATOM     39  H   UNL     1      -6.321  10.723   4.121  0.00  0.00    +0.000 HD
ATOM     40  H   UNL     1      -7.849  11.146   3.343  0.00  0.00    +0.000 HD
ATOM     41  H   UNL     1      -7.860  10.159   4.809  0.00  0.00    +0.000 HD
ENDBRANCH   5  38
TORSDOF 8
ENDMDL
MODEL 3
REMARK VINA RESULT:    -5.417     16.065     17.871
REMARK INTER + INTRA:          -8.144
REMARK INTER:                  -7.088
REMARK INTRA:                  -1.056
REMARK UNBOUND:                -0.668
REMARK  Name = 5365976
REMARK  8 active torsions:
REMARK  status: ('A' for Active; 'I' for Inactive)
REMARK    1  A    between atoms: C_2  and  C_7
REMARK    2  A    between atoms: C_2  and  C_8
REMARK    3  A    between atoms: C_3  and  C_10
REMARK    4  A    between atoms: C_6  and  C_11
REMARK    5  A    between atoms: C_12  and  C_13
REMARK    6  A    between atoms: C_13  and  C_14
REMARK    7  A    between atoms: C_14  and  C_15
REMARK    8  A    between atoms: C_15  and  C_16
REMARK                            x       y       z     vdW  Elec       q    Type
REMARK                         _______ _______ _______ _____ _____    ______ ____
ROOT
ATOM      1  C   UNL     1      -9.081  14.660   4.631  0.00  0.00    +0.000 C 
ATOM      2  C   UNL     1      -9.012  13.092   4.697  0.00  0.00    +0.000 C 
ATOM      3  C   UNL     1      -8.174  15.260   5.731  0.00  0.00    +0.000 C 
ATOM      4  C   UNL     1      -6.722  14.783   5.639  0.00  0.00    +0.000 C 
ATOM      5  C   UNL     1      -7.581  12.579   4.783  0.00  0.00    +0.000 C 
ATOM      6  C   UNL     1      -6.569  13.354   5.213  0.00  0.00    +0.000 C 
ATOM      7  H   UNL     1      -9.432  12.724   3.750  0.00  0.00    +0.000 HD
ATOM      8  H   UNL     1      -8.568  14.994   6.720  0.00  0.00    +0.000 HD
ATOM      9  H   UNL     1      -8.192  16.357   5.689  0.00  0.00    +0.000 HD
ATOM     10  H   UNL     1      -6.238  14.925   6.612  0.00  0.00    +0.000 HD
ATOM     11  H   UNL     1      -6.176  15.411   4.924  0.00  0.00    +0.000 HD
ATOM     12  H   UNL     1      -5.560  12.951   5.247  0.00  0.00    +0.000 HD
ENDROOT
BRANCH   1  13
ATOM     13  C   UNL     1      -8.615  15.145   3.235  0.00  0.00    +0.000 C 
ATOM     14  H   UNL     1      -9.206  14.674   2.441  0.00  0.00    +0.000 HD
ATOM     15  H   UNL     1      -8.705  16.228   3.110  0.00  0.00    +0.000 HD
ATOM     16  H   UNL     1      -7.565  14.885   3.063  0.00  0.00    +0.000 HD
ENDBRANCH   1  13
BRANCH   1  17
ATOM     17  C   UNL     1     -10.521  15.183   4.825  0.00  0.00    +0.000 C 
ATOM     18  H   UNL     1     -10.536  16.277   4.877  0.00  0.00    +0.000 HD
ATOM     19  H   UNL     1     -11.166  14.880   3.993  0.00  0.00    +0.000 HD
ATOM     20  H   UNL     1     -10.970  14.815   5.754  0.00  0.00    +0.000 HD
ENDBRANCH   1  17
BRANCH   2  21
ATOM     21  C   UNL     1      -9.817  12.514   5.833  0.00  0.00    +0.000 C 
ATOM     22  C   UNL     1     -10.772  11.592   5.662  0.00  0.00    +0.000 C 
ATOM     23  H   UNL     1      -9.588  12.876   6.833  0.00  0.00    +0.000 HD
ATOM     24  H   UNL     1     -11.023  11.209   4.679  0.00  0.00    +0.000 HD
BRANCH  22  26
ATOM     25  O   UNL     1     -12.389  11.726   7.402  0.00  0.00    +0.000 OA
ATOM     26  C   UNL     1     -11.536  11.056   6.826  0.00  0.00    +0.000 C 
BRANCH  26  27
ATOM     27  C   UNL     1     -11.180   9.640   7.244  0.00  0.00    +0.000 C 
ATOM     28  H   UNL     1     -12.115   9.095   7.425  0.00  0.00    +0.000 HD
ATOM     29  H   UNL     1     -10.653   9.160   6.410  0.00  0.00    +0.000 HD
BRANCH  27  30
ATOM     30  C   UNL     1     -10.308   9.604   8.498  0.00  0.00    +0.000 C 
ATOM     31  H   UNL     1     -10.512   8.688   9.067  0.00  0.00    +0.000 HD
ATOM     32  H   UNL     1     -10.569  10.443   9.154  0.00  0.00    +0.000 HD
BRANCH  30  33
ATOM     33  C   UNL     1      -8.851   9.705   8.153  0.00  0.00    +0.000 C 
ATOM     34  C   UNL     1      -8.092  10.774   8.417  0.00  0.00    +0.000 C 
ATOM     35  H   UNL     1      -8.399   8.858   7.645  0.00  0.00    +0.000 HD
ATOM     36  H   UNL     1      -7.046  10.787   8.134  0.00  0.00    +0.000 HD
ATOM     37  H   UNL     1      -8.496  11.649   8.915  0.00  0.00    +0.000 HD
ENDBRANCH  30  33
ENDBRANCH  27  30
ENDBRANCH  26  27
ENDBRANCH  22  26
ENDBRANCH   2  21
BRANCH   5  38
ATOM     38  C   UNL     1      -7.345  11.159   4.348  0.00  0.00    +0.000 C 
ATOM     39  H   UNL     1      -7.843  10.458   5.024  0.00  0.00    +0.000 HD
ATOM     40  H   UNL     1      -6.280  10.904   4.334  0.00  0.00    +0.000 HD
ATOM     41  H   UNL     1      -7.735  11.004   3.337  0.00  0.00    +0.000 HD
ENDBRANCH   5  38
TORSDOF 8
ENDMDL
MODEL 4
REMARK VINA RESULT:    -5.366     18.914     21.039
REMARK INTER + INTRA:          -8.074
REMARK INTER:                  -7.441
REMARK INTRA:                  -0.633
REMARK UNBOUND:                -0.668
REMARK  Name = 5365976
REMARK  8 active torsions:
REMARK  status: ('A' for Active; 'I' for Inactive)
REMARK    1  A    between atoms: C_2  and  C_7
REMARK    2  A    between atoms: C_2  and  C_8
REMARK    3  A    between atoms: C_3  and  C_10
REMARK    4  A    between atoms: C_6  and  C_11
REMARK    5  A    between atoms: C_12  and  C_13
REMARK    6  A    between atoms: C_13  and  C_14
REMARK    7  A    between atoms: C_14  and  C_15
REMARK    8  A    between atoms: C_15  and  C_16
REMARK                            x       y       z     vdW  Elec       q    Type
REMARK                         _______ _______ _______ _____ _____    ______ ____
ROOT
ATOM      1  C   UNL     1      -2.442   7.984 -12.178  0.00  0.00    +0.000 C 
ATOM      2  C   UNL     1      -3.379   7.162 -11.222  0.00  0.00    +0.000 C 
ATOM      3  C   UNL     1      -2.489   9.479 -11.781  0.00  0.00    +0.000 C 
ATOM      4  C   UNL     1      -2.108   9.724 -10.318  0.00  0.00    +0.000 C 
ATOM      5  C   UNL     1      -3.152   7.506  -9.755  0.00  0.00    +0.000 C 
ATOM      6  C   UNL     1      -2.585   8.663  -9.372  0.00  0.00    +0.000 C 
ATOM      7  H   UNL     1      -3.104   6.105 -11.353  0.00  0.00    +0.000 HD
ATOM      8  H   UNL     1      -3.498   9.875 -11.951  0.00  0.00    +0.000 HD
ATOM      9  H   UNL     1      -1.825  10.069 -12.426  0.00  0.00    +0.000 HD
ATOM     10  H   UNL     1      -2.507  10.695 -10.004  0.00  0.00    +0.000 HD
ATOM     11  H   UNL     1      -1.017   9.792 -10.231  0.00  0.00    +0.000 HD
ATOM     12  H   UNL     1      -2.430   8.862  -8.314  0.00  0.00    +0.000 HD
ENDROOT
BRANCH   1  13
ATOM     13  C   UNL     1      -0.991   7.451 -12.074  0.00  0.00    +0.000 C 
ATOM     14  H   UNL     1      -0.983   6.363 -11.942  0.00  0.00    +0.000 HD
ATOM     15  H   UNL     1      -0.392   7.677 -12.961  0.00  0.00    +0.000 HD
ATOM     16  H   UNL     1      -0.475   7.892 -11.214  0.00  0.00    +0.000 HD
ENDBRANCH   1  13
BRANCH   1  17
ATOM     17  C   UNL     1      -2.863   7.843 -13.657  0.00  0.00    +0.000 C 
ATOM     18  H   UNL     1      -2.034   8.104 -14.326  0.00  0.00    +0.000 HD
ATOM     19  H   UNL     1      -3.163   6.814 -13.886  0.00  0.00    +0.000 HD
ATOM     20  H   UNL     1      -3.697   8.505 -13.913  0.00  0.00    +0.000 HD
ENDBRANCH   1  17
BRANCH   2  21
ATOM     21  C   UNL     1      -4.841   7.319 -11.550  0.00  0.00    +0.000 C 
ATOM     22  C   UNL     1      -5.742   6.343 -11.380  0.00  0.00    +0.000 C 
ATOM     23  H   UNL     1      -5.158   8.285 -11.937  0.00  0.00    +0.000 HD
ATOM     24  H   UNL     1      -5.459   5.370 -10.994  0.00  0.00    +0.000 HD
BRANCH  22  26
ATOM     25  O   UNL     1      -7.525   6.948 -12.835  0.00  0.00    +0.000 OA
ATOM     26  C   UNL     1      -7.177   6.559 -11.723  0.00  0.00    +0.000 C 
BRANCH  26  27
ATOM     27  C   UNL     1      -8.165   6.268 -10.606  0.00  0.00    +0.000 C 
ATOM     28  H   UNL     1      -8.809   7.148 -10.487  0.00  0.00    +0.000 HD
ATOM     29  H   UNL     1      -8.788   5.419 -10.914  0.00  0.00    +0.000 HD
BRANCH  27  30
ATOM     30  C   UNL     1      -7.470   5.950  -9.283  0.00  0.00    +0.000 C 
ATOM     31  H   UNL     1      -6.500   6.461  -9.240  0.00  0.00    +0.000 HD
ATOM     32  H   UNL     1      -7.259   4.875  -9.225  0.00  0.00    +0.000 HD
BRANCH  30  33
ATOM     33  C   UNL     1      -8.326   6.331  -8.111  0.00  0.00    +0.000 C 
ATOM     34  C   UNL     1      -7.904   6.321  -6.842  0.00  0.00    +0.000 C 
ATOM     35  H   UNL     1      -9.354   6.617  -8.315  0.00  0.00    +0.000 HD
ATOM     36  H   UNL     1      -8.577   6.600  -6.038  0.00  0.00    +0.000 HD
ATOM     37  H   UNL     1      -6.891   6.036  -6.582  0.00  0.00    +0.000 HD
ENDBRANCH  30  33
ENDBRANCH  27  30
ENDBRANCH  26  27
ENDBRANCH  22  26
ENDBRANCH   2  21
BRANCH   5  38
ATOM     38  C   UNL     1      -3.582   6.477  -8.746  0.00  0.00    +0.000 C 
ATOM     39  H   UNL     1      -4.217   6.928  -7.978  0.00  0.00    +0.000 HD
ATOM     40  H   UNL     1      -2.728   6.015  -8.240  0.00  0.00    +0.000 HD
ATOM     41  H   UNL     1      -4.147   5.677  -9.238  0.00  0.00    +0.000 HD
ENDBRANCH   5  38
TORSDOF 8
ENDMDL
MODEL 5
REMARK VINA RESULT:    -5.349     15.411     16.959
REMARK INTER + INTRA:          -8.050
REMARK INTER:                  -7.232
REMARK INTRA:                  -0.818
REMARK UNBOUND:                -0.668
REMARK  Name = 5365976
REMARK  8 active torsions:
REMARK  status: ('A' for Active; 'I' for Inactive)
REMARK    1  A    between atoms: C_2  and  C_7
REMARK    2  A    between atoms: C_2  and  C_8
REMARK    3  A    between atoms: C_3  and  C_10
REMARK    4  A    between atoms: C_6  and  C_11
REMARK    5  A    between atoms: C_12  and  C_13
REMARK    6  A    between atoms: C_13  and  C_14
REMARK    7  A    between atoms: C_14  and  C_15
REMARK    8  A    between atoms: C_15  and  C_16
REMARK                            x       y       z     vdW  Elec       q    Type
REMARK                         _______ _______ _______ _____ _____    ______ ____
ROOT
ATOM      1  C   UNL     1      -8.113  11.561   5.308  0.00  0.00    +0.000 C 
ATOM      2  C   UNL     1      -7.299  12.726   5.975  0.00  0.00    +0.000 C 
ATOM      3  C   UNL     1      -9.509  12.084   4.892  0.00  0.00    +0.000 C 
ATOM      4  C   UNL     1      -9.442  13.294   3.956  0.00  0.00    +0.000 C 
ATOM      5  C   UNL     1      -7.351  14.010   5.157  0.00  0.00    +0.000 C 
ATOM      6  C   UNL     1      -8.325  14.246   4.259  0.00  0.00    +0.000 C 
ATOM      7  H   UNL     1      -6.249  12.398   5.995  0.00  0.00    +0.000 HD
ATOM      8  H   UNL     1     -10.080  12.363   5.786  0.00  0.00    +0.000 HD
ATOM      9  H   UNL     1     -10.088  11.288   4.406  0.00  0.00    +0.000 HD
ATOM     10  H   UNL     1     -10.397  13.829   3.998  0.00  0.00    +0.000 HD
ATOM     11  H   UNL     1      -9.324  12.949   2.921  0.00  0.00    +0.000 HD
ATOM     12  H   UNL     1      -8.317  15.171   3.688  0.00  0.00    +0.000 HD
ENDROOT
BRANCH   1  13
ATOM     13  C   UNL     1      -7.351  11.033   4.068  0.00  0.00    +0.000 C 
ATOM     14  H   UNL     1      -7.365  11.771   3.257  0.00  0.00    +0.000 HD
ATOM     15  H   UNL     1      -6.303  10.800   4.280  0.00  0.00    +0.000 HD
ATOM     16  H   UNL     1      -7.815  10.116   3.686  0.00  0.00    +0.000 HD
ENDBRANCH   1  13
BRANCH   1  17
ATOM     17  C   UNL     1      -8.290  10.361   6.265  0.00  0.00    +0.000 C 
ATOM     18  H   UNL     1      -7.411  10.242   6.909  0.00  0.00    +0.000 HD
ATOM     19  H   UNL     1      -9.162  10.499   6.914  0.00  0.00    +0.000 HD
ATOM     20  H   UNL     1      -8.416   9.418   5.723  0.00  0.00    +0.000 HD
ENDBRANCH   1  17
BRANCH   2  21
ATOM     21  C   UNL     1      -7.734  13.019   7.388  0.00  0.00    +0.000 C 
ATOM     22  C   UNL     1      -6.918  12.923   8.444  0.00  0.00    +0.000 C 
ATOM     23  H   UNL     1      -8.768  13.327   7.530  0.00  0.00    +0.000 HD
ATOM     24  H   UNL     1      -5.882  12.620   8.336  0.00  0.00    +0.000 HD
BRANCH  22  26
ATOM     25  O   UNL     1      -7.382  14.365  10.278  0.00  0.00    +0.000 OA
ATOM     26  C   UNL     1      -7.407  13.226   9.820  0.00  0.00    +0.000 C 
BRANCH  26  27
ATOM     27  C   UNL     1      -7.928  12.034  10.604  0.00  0.00    +0.000 C 
ATOM     28  H   UNL     1      -7.880  12.283  11.671  0.00  0.00    +0.000 HD
ATOM     29  H   UNL     1      -8.979  11.878  10.330  0.00  0.00    +0.000 HD
BRANCH  27  30
ATOM     30  C   UNL     1      -7.126  10.762  10.331  0.00  0.00    +0.000 C 
ATOM     31  H   UNL     1      -6.622  10.436  11.249  0.00  0.00    +0.000 HD
ATOM     32  H   UNL     1      -6.337  10.972   9.599  0.00  0.00    +0.000 HD
BRANCH  30  33
ATOM     33  C   UNL     1      -8.001   9.671   9.787  0.00  0.00    +0.000 C 
ATOM     34  C   UNL     1      -8.262   8.529  10.434  0.00  0.00    +0.000 C 
ATOM     35  H   UNL     1      -8.431   9.820   8.801  0.00  0.00    +0.000 HD
ATOM     36  H   UNL     1      -8.897   7.776   9.982  0.00  0.00    +0.000 HD
ATOM     37  H   UNL     1      -7.852   8.327  11.417  0.00  0.00    +0.000 HD
ENDBRANCH  30  33
ENDBRANCH  27  30
ENDBRANCH  26  27
ENDBRANCH  22  26
ENDBRANCH   2  21
BRANCH   5  38
ATOM     38  C   UNL     1      -6.247  15.005   5.388  0.00  0.00    +0.000 C 
ATOM     39  H   UNL     1      -6.015  15.547   4.467  0.00  0.00    +0.000 HD
ATOM     40  H   UNL     1      -5.324  14.524   5.730  0.00  0.00    +0.000 HD
ATOM     41  H   UNL     1      -6.545  15.729   6.153  0.00  0.00    +0.000 HD
ENDBRANCH   5  38
TORSDOF 8
ENDMDL
MODEL 6
REMARK VINA RESULT:    -5.315     15.695     17.538
REMARK INTER + INTRA:          -8.003
REMARK INTER:                  -7.553
REMARK INTRA:                  -0.450
REMARK UNBOUND:                -0.668
REMARK  Name = 5365976
REMARK  8 active torsions:
REMARK  status: ('A' for Active; 'I' for Inactive)
REMARK    1  A    between atoms: C_2  and  C_7
REMARK    2  A    between atoms: C_2  and  C_8
REMARK    3  A    between atoms: C_3  and  C_10
REMARK    4  A    between atoms: C_6  and  C_11
REMARK    5  A    between atoms: C_12  and  C_13
REMARK    6  A    between atoms: C_13  and  C_14
REMARK    7  A    between atoms: C_14  and  C_15
REMARK    8  A    between atoms: C_15  and  C_16
REMARK                            x       y       z     vdW  Elec       q    Type
REMARK                         _______ _______ _______ _____ _____    ______ ____
ROOT
ATOM      1  C   UNL     1      -8.734  14.100   6.610  0.00  0.00    +0.000 C 
ATOM      2  C   UNL     1      -8.492  12.584   6.277  0.00  0.00    +0.000 C 
ATOM      3  C   UNL     1      -7.374  14.787   6.881  0.00  0.00    +0.000 C 
ATOM      4  C   UNL     1      -6.388  14.645   5.718  0.00  0.00    +0.000 C 
ATOM      5  C   UNL     1      -7.389  12.387   5.245  0.00  0.00    +0.000 C 
ATOM      6  C   UNL     1      -6.452  13.324   5.014  0.00  0.00    +0.000 C 
ATOM      7  H   UNL     1      -9.426  12.214   5.828  0.00  0.00    +0.000 HD
ATOM      8  H   UNL     1      -6.918  14.361   7.783  0.00  0.00    +0.000 HD
ATOM      9  H   UNL     1      -7.520  15.854   7.097  0.00  0.00    +0.000 HD
ATOM     10  H   UNL     1      -5.371  14.808   6.093  0.00  0.00    +0.000 HD
ATOM     11  H   UNL     1      -6.577  15.434   4.980  0.00  0.00    +0.000 HD
ATOM     12  H   UNL     1      -5.690  13.147   4.259  0.00  0.00    +0.000 HD
ENDROOT
BRANCH   1  13
ATOM     13  C   UNL     1      -9.451  14.789   5.423  0.00  0.00    +0.000 C 
ATOM     14  H   UNL     1      -9.569  14.095   4.582  0.00  0.00    +0.000 HD
ATOM     15  H   UNL     1     -10.448  15.157   5.685  0.00  0.00    +0.000 HD
ATOM     16  H   UNL     1      -8.874  15.647   5.063  0.00  0.00    +0.000 HD
ENDBRANCH   1  13
BRANCH   1  17
ATOM     17  C   UNL     1      -9.644  14.280   7.845  0.00  0.00    +0.000 C 
ATOM     18  H   UNL     1     -10.056  13.319   8.171  0.00  0.00    +0.000 HD
ATOM     19  H   UNL     1      -9.086  14.706   8.687  0.00  0.00    +0.000 HD
ATOM     20  H   UNL     1     -10.496  14.936   7.635  0.00  0.00    +0.000 HD
ENDBRANCH   1  17
BRANCH   2  21
ATOM     21  C   UNL     1      -8.188  11.752   7.496  0.00  0.00    +0.000 C 
ATOM     22  C   UNL     1      -8.881  10.658   7.833  0.00  0.00    +0.000 C 
ATOM     23  H   UNL     1      -7.353  12.075   8.116  0.00  0.00    +0.000 HD
ATOM     24  H   UNL     1      -9.716  10.309   7.236  0.00  0.00    +0.000 HD
BRANCH  22  26
ATOM     25  O   UNL     1      -7.366   9.731   9.416  0.00  0.00    +0.000 OA
ATOM     26  C   UNL     1      -8.531   9.876   9.053  0.00  0.00    +0.000 C 
BRANCH  26  27
ATOM     27  C   UNL     1      -9.708   9.274   9.802  0.00  0.00    +0.000 C 
ATOM     28  H   UNL     1     -10.285  10.096  10.243  0.00  0.00    +0.000 HD
ATOM     29  H   UNL     1     -10.344   8.752   9.076  0.00  0.00    +0.000 HD
BRANCH  27  30
ATOM     30  C   UNL     1      -9.266   8.303  10.897  0.00  0.00    +0.000 C 
ATOM     31  H   UNL     1      -8.289   8.609  11.292  0.00  0.00    +0.000 HD
ATOM     32  H   UNL     1      -9.130   7.302  10.470  0.00  0.00    +0.000 HD
BRANCH  30  33
ATOM     33  C   UNL     1     -10.284   8.220  11.995  0.00  0.00    +0.000 C 
ATOM     34  C   UNL     1     -11.367   9.002  12.072  0.00  0.00    +0.000 C 
ATOM     35  H   UNL     1     -10.114   7.488  12.779  0.00  0.00    +0.000 HD
ATOM     36  H   UNL     1     -12.061   8.896  12.898  0.00  0.00    +0.000 HD
ATOM     37  H   UNL     1     -11.580   9.754  11.321  0.00  0.00    +0.000 HD
ENDBRANCH  30  33
ENDBRANCH  27  30
ENDBRANCH  26  27
ENDBRANCH  22  26
ENDBRANCH   2  21
BRANCH   5  38
ATOM     38  C   UNL     1      -7.404  11.093   4.479  0.00  0.00    +0.000 C 
ATOM     39  H   UNL     1      -7.150  10.253   5.132  0.00  0.00    +0.000 HD
ATOM     40  H   UNL     1      -6.687  11.097   3.651  0.00  0.00    +0.000 HD
ATOM     41  H   UNL     1      -8.397  10.916   4.054  0.00  0.00    +0.000 HD
ENDBRANCH   5  38
TORSDOF 8
ENDMDL
MODEL 7
REMARK VINA RESULT:    -5.145     19.594     21.754
REMARK INTER + INTRA:          -7.769
REMARK INTER:                  -7.331
REMARK INTRA:                  -0.438
REMARK UNBOUND:                -0.668
REMARK  Name = 5365976
REMARK  8 active torsions:
REMARK  status: ('A' for Active; 'I' for Inactive)
REMARK    1  A    between atoms: C_2  and  C_7
REMARK    2  A    between atoms: C_2  and  C_8
REMARK    3  A    between atoms: C_3  and  C_10
REMARK    4  A    between atoms: C_6  and  C_11
REMARK    5  A    between atoms: C_12  and  C_13
REMARK    6  A    between atoms: C_13  and  C_14
REMARK    7  A    between atoms: C_14  and  C_15
REMARK    8  A    between atoms: C_15  and  C_16
REMARK                            x       y       z     vdW  Elec       q    Type
REMARK                         _______ _______ _______ _____ _____    ______ ____
ROOT
ATOM      1  C   UNL     1      -9.022   4.525  -5.906  0.00  0.00    +0.000 C 
ATOM      2  C   UNL     1      -8.063   3.765  -6.890  0.00  0.00    +0.000 C 
ATOM      3  C   UNL     1     -10.104   5.273  -6.721  0.00  0.00    +0.000 C 
ATOM      4  C   UNL     1     -10.906   4.350  -7.643  0.00  0.00    +0.000 C 
ATOM      5  C   UNL     1      -8.826   2.968  -7.940  0.00  0.00    +0.000 C 
ATOM      6  C   UNL     1     -10.100   3.251  -8.266  0.00  0.00    +0.000 C 
ATOM      7  H   UNL     1      -7.502   3.042  -6.279  0.00  0.00    +0.000 HD
ATOM      8  H   UNL     1      -9.634   6.055  -7.330  0.00  0.00    +0.000 HD
ATOM      9  H   UNL     1     -10.797   5.796  -6.049  0.00  0.00    +0.000 HD
ATOM     10  H   UNL     1     -11.370   4.952  -8.432  0.00  0.00    +0.000 HD
ATOM     11  H   UNL     1     -11.727   3.892  -7.077  0.00  0.00    +0.000 HD
ATOM     12  H   UNL     1     -10.611   2.648  -9.012  0.00  0.00    +0.000 HD
ENDROOT
BRANCH   1  13
ATOM     13  C   UNL     1      -9.687   3.515  -4.939  0.00  0.00    +0.000 C 
ATOM     14  H   UNL     1      -9.288   3.624  -3.924  0.00  0.00    +0.000 HD
ATOM     15  H   UNL     1     -10.773   3.638  -4.877  0.00  0.00    +0.000 HD
ATOM     16  H   UNL     1      -9.496   2.484  -5.259  0.00  0.00    +0.000 HD
ENDBRANCH   1  13
BRANCH   1  17
ATOM     17  C   UNL     1      -8.259   5.543  -5.029  0.00  0.00    +0.000 C 
ATOM     18  H   UNL     1      -8.100   5.147  -4.020  0.00  0.00    +0.000 HD
ATOM     19  H   UNL     1      -7.276   5.772  -5.456  0.00  0.00    +0.000 HD
ATOM     20  H   UNL     1      -8.809   6.483  -4.918  0.00  0.00    +0.000 HD
ENDBRANCH   1  17
BRANCH   2  21
ATOM     21  C   UNL     1      -7.077   4.675  -7.576  0.00  0.00    +0.000 C 
ATOM     22  C   UNL     1      -7.149   4.994  -8.873  0.00  0.00    +0.000 C 
ATOM     23  H   UNL     1      -6.278   5.086  -6.961  0.00  0.00    +0.000 HD
ATOM     24  H   UNL     1      -7.935   4.604  -9.511  0.00  0.00    +0.000 HD
BRANCH  22  26
ATOM     25  O   UNL     1      -6.363   6.480 -10.557  0.00  0.00    +0.000 OA
ATOM     26  C   UNL     1      -6.143   5.902  -9.495  0.00  0.00    +0.000 C 
BRANCH  26  27
ATOM     27  C   UNL     1      -4.839   6.053  -8.730  0.00  0.00    +0.000 C 
ATOM     28  H   UNL     1      -5.083   6.189  -7.669  0.00  0.00    +0.000 HD
ATOM     29  H   UNL     1      -4.269   5.122  -8.840  0.00  0.00    +0.000 HD
BRANCH  27  30
ATOM     30  C   UNL     1      -4.006   7.234  -9.227  0.00  0.00    +0.000 C 
ATOM     31  H   UNL     1      -3.617   7.801  -8.372  0.00  0.00    +0.000 HD
ATOM     32  H   UNL     1      -4.644   7.924  -9.793  0.00  0.00    +0.000 HD
BRANCH  30  33
ATOM     33  C   UNL     1      -2.889   6.778 -10.118  0.00  0.00    +0.000 C 
ATOM     34  C   UNL     1      -2.939   6.806 -11.455  0.00  0.00    +0.000 C 
ATOM     35  H   UNL     1      -1.995   6.388  -9.639  0.00  0.00    +0.000 HD
ATOM     36  H   UNL     1      -2.099   6.453 -12.042  0.00  0.00    +0.000 HD
ATOM     37  H   UNL     1      -3.810   7.177 -11.983  0.00  0.00    +0.000 HD
ENDBRANCH  30  33
ENDBRANCH  27  30
ENDBRANCH  26  27
ENDBRANCH  22  26
ENDBRANCH   2  21
BRANCH   5  38
ATOM     38  C   UNL     1      -8.089   1.830  -8.592  0.00  0.00    +0.000 C 
ATOM     39  H   UNL     1      -8.487   0.867  -8.256  0.00  0.00    +0.000 HD
ATOM     40  H   UNL     1      -7.019   1.845  -8.359  0.00  0.00    +0.000 HD
ATOM     41  H   UNL     1      -8.192   1.887  -9.680  0.00  0.00    +0.000 HD
ENDBRANCH   5  38
TORSDOF 8
ENDMDL
MODEL 8
REMARK VINA RESULT:    -5.092     29.340     31.509
REMARK INTER + INTRA:          -7.695
REMARK INTER:                  -6.791
REMARK INTRA:                  -0.905
REMARK UNBOUND:                -0.668
REMARK  Name = 5365976
REMARK  8 active torsions:
REMARK  status: ('A' for Active; 'I' for Inactive)
REMARK    1  A    between atoms: C_2  and  C_7
REMARK    2  A    between atoms: C_2  and  C_8
REMARK    3  A    between atoms: C_3  and  C_10
REMARK    4  A    between atoms: C_6  and  C_11
REMARK    5  A    between atoms: C_12  and  C_13
REMARK    6  A    between atoms: C_13  and  C_14
REMARK    7  A    between atoms: C_14  and  C_15
REMARK    8  A    between atoms: C_15  and  C_16
REMARK                            x       y       z     vdW  Elec       q    Type
REMARK                         _______ _______ _______ _____ _____    ______ ____
ROOT
ATOM      1  C   UNL     1     -14.779  -6.466  22.011  0.00  0.00    +0.000 C 
ATOM      2  C   UNL     1     -15.315  -6.347  20.539  0.00  0.00    +0.000 C 
ATOM      3  C   UNL     1     -15.263  -5.248  22.832  0.00  0.00    +0.000 C 
ATOM      4  C   UNL     1     -16.785  -5.087  22.829  0.00  0.00    +0.000 C 
ATOM      5  C   UNL     1     -16.800  -6.013  20.490  0.00  0.00    +0.000 C 
ATOM      6  C   UNL     1     -17.439  -5.444  21.528  0.00  0.00    +0.000 C 
ATOM      7  H   UNL     1     -15.191  -7.340  20.084  0.00  0.00    +0.000 HD
ATOM      8  H   UNL     1     -14.812  -4.330  22.433  0.00  0.00    +0.000 HD
ATOM      9  H   UNL     1     -14.914  -5.322  23.871  0.00  0.00    +0.000 HD
ATOM     10  H   UNL     1     -17.035  -4.052  23.089  0.00  0.00    +0.000 HD
ATOM     11  H   UNL     1     -17.221  -5.719  23.613  0.00  0.00    +0.000 HD
ATOM     12  H   UNL     1     -18.503  -5.234  21.455  0.00  0.00    +0.000 HD
ENDROOT
BRANCH   1  13
ATOM     13  C   UNL     1     -15.295  -7.779  22.651  0.00  0.00    +0.000 C 
ATOM     14  H   UNL     1     -16.272  -7.625  23.125  0.00  0.00    +0.000 HD
ATOM     15  H   UNL     1     -15.408  -8.589  21.925  0.00  0.00    +0.000 HD
ATOM     16  H   UNL     1     -14.605  -8.132  23.426  0.00  0.00    +0.000 HD
ENDBRANCH   1  13
BRANCH   1  17
ATOM     17  C   UNL     1     -13.236  -6.525  22.059  0.00  0.00    +0.000 C 
ATOM     18  H   UNL     1     -12.885  -6.751  23.072  0.00  0.00    +0.000 HD
ATOM     19  H   UNL     1     -12.850  -7.304  21.392  0.00  0.00    +0.000 HD
ATOM     20  H   UNL     1     -12.779  -5.573  21.770  0.00  0.00    +0.000 HD
ENDBRANCH   1  17
BRANCH   2  21
ATOM     21  C   UNL     1     -14.552  -5.345  19.712  0.00  0.00    +0.000 C 
ATOM     22  C   UNL     1     -13.920  -5.658  18.574  0.00  0.00    +0.000 C 
ATOM     23  H   UNL     1     -14.533  -4.319  20.076  0.00  0.00    +0.000 HD
ATOM     24  H   UNL     1     -13.922  -6.670  18.184  0.00  0.00    +0.000 HD
BRANCH  22  26
ATOM     25  O   UNL     1     -12.386  -3.855  18.338  0.00  0.00    +0.000 OA
ATOM     26  C   UNL     1     -13.181  -4.621  17.799  0.00  0.00    +0.000 C 
BRANCH  26  27
ATOM     27  C   UNL     1     -13.484  -4.580  16.311  0.00  0.00    +0.000 C 
ATOM     28  H   UNL     1     -14.157  -3.734  16.125  0.00  0.00    +0.000 HD
ATOM     29  H   UNL     1     -12.543  -4.401  15.775  0.00  0.00    +0.000 HD
BRANCH  27  30
ATOM     30  C   UNL     1     -14.127  -5.874  15.812  0.00  0.00    +0.000 C 
ATOM     31  H   UNL     1     -14.159  -6.611  16.625  0.00  0.00    +0.000 HD
ATOM     32  H   UNL     1     -13.509  -6.311  15.018  0.00  0.00    +0.000 HD
BRANCH  30  33
ATOM     33  C   UNL     1     -15.501  -5.624  15.264  0.00  0.00    +0.000 C 
ATOM     34  C   UNL     1     -16.419  -4.859  15.866  0.00  0.00    +0.000 C 
ATOM     35  H   UNL     1     -15.762  -6.112  14.329  0.00  0.00    +0.000 HD
ATOM     36  H   UNL     1     -17.398  -4.726  15.421  0.00  0.00    +0.000 HD
ATOM     37  H   UNL     1     -16.213  -4.357  16.805  0.00  0.00    +0.000 HD
ENDBRANCH  30  33
ENDBRANCH  27  30
ENDBRANCH  26  27
ENDBRANCH  22  26
ENDBRANCH   2  21
BRANCH   5  38
ATOM     38  C   UNL     1     -17.530  -6.366  19.224  0.00  0.00    +0.000 C 
ATOM     39  H   UNL     1     -17.711  -7.443  19.167  0.00  0.00    +0.000 HD
ATOM     40  H   UNL     1     -16.968  -6.078  18.330  0.00  0.00    +0.000 HD
ATOM     41  H   UNL     1     -18.495  -5.849  19.187  0.00  0.00    +0.000 HD
ENDBRANCH   5  38
TORSDOF 8
ENDMDL
MODEL 9
REMARK VINA RESULT:    -4.997     21.354     23.421
REMARK INTER + INTRA:          -7.564
REMARK INTER:                  -6.839
REMARK INTRA:                  -0.725
REMARK UNBOUND:                -0.668
REMARK  Name = 5365976
REMARK  8 active torsions:
REMARK  status: ('A' for Active; 'I' for Inactive)
REMARK    1  A    between atoms: C_2  and  C_7
REMARK    2  A    between atoms: C_2  and  C_8
REMARK    3  A    between atoms: C_3  and  C_10
REMARK    4  A    between atoms: C_6  and  C_11
REMARK    5  A    between atoms: C_12  and  C_13
REMARK    6  A    between atoms: C_13  and  C_14
REMARK    7  A    between atoms: C_14  and  C_15
REMARK    8  A    between atoms: C_15  and  C_16
REMARK                            x       y       z     vdW  Elec       q    Type
REMARK                         _______ _______ _______ _____ _____    ______ ____
ROOT
ATOM      1  C   UNL     1       3.116  -1.596 -14.341  0.00  0.00    +0.000 C 
ATOM      2  C   UNL     1       2.096  -1.098 -13.257  0.00  0.00    +0.000 C 
ATOM      3  C   UNL     1       2.720  -1.021 -15.721  0.00  0.00    +0.000 C 
ATOM      4  C   UNL     1       2.631   0.508 -15.732  0.00  0.00    +0.000 C 
ATOM      5  C   UNL     1       1.843   0.402 -13.345  0.00  0.00    +0.000 C 
ATOM      6  C   UNL     1       2.086   1.102 -14.468  0.00  0.00    +0.000 C 
ATOM      7  H   UNL     1       2.563  -1.291 -12.280  0.00  0.00    +0.000 HD
ATOM      8  H   UNL     1       1.749  -1.431 -16.027  0.00  0.00    +0.000 HD
ATOM      9  H   UNL     1       3.433  -1.342 -16.491  0.00  0.00    +0.000 HD
ATOM     10  H   UNL     1       2.009   0.822 -16.578  0.00  0.00    +0.000 HD
ATOM     11  H   UNL     1       3.629   0.930 -15.905  0.00  0.00    +0.000 HD
ATOM     12  H   UNL     1       1.904   2.173 -14.483  0.00  0.00    +0.000 HD
ENDROOT
BRANCH   1  13
ATOM     13  C   UNL     1       4.546  -1.135 -13.964  0.00  0.00    +0.000 C 
ATOM     14  H   UNL     1       4.689  -1.153 -12.877  0.00  0.00    +0.000 HD
ATOM     15  H   UNL     1       5.326  -1.764 -14.406  0.00  0.00    +0.000 HD
ATOM     16  H   UNL     1       4.728  -0.109 -14.303  0.00  0.00    +0.000 HD
ENDBRANCH   1  13
BRANCH   1  17
ATOM     17  C   UNL     1       3.156  -3.137 -14.431  0.00  0.00    +0.000 C 
ATOM     18  H   UNL     1       2.476  -3.501 -15.210  0.00  0.00    +0.000 HD
ATOM     19  H   UNL     1       4.163  -3.493 -14.675  0.00  0.00    +0.000 HD
ATOM     20  H   UNL     1       2.846  -3.612 -13.493  0.00  0.00    +0.000 HD
ENDBRANCH   1  17
BRANCH   2  21
ATOM     21  C   UNL     1       0.778  -1.828 -13.307  0.00  0.00    +0.000 C 
ATOM     22  C   UNL     1      -0.314  -1.336 -13.905  0.00  0.00    +0.000 C 
ATOM     23  H   UNL     1       0.739  -2.806 -12.830  0.00  0.00    +0.000 HD
ATOM     24  H   UNL     1      -0.307  -0.366 -14.391  0.00  0.00    +0.000 HD
BRANCH  22  26
ATOM     25  O   UNL     1      -1.841  -2.923 -14.804  0.00  0.00    +0.000 OA
ATOM     26  C   UNL     1      -1.590  -2.106 -13.921  0.00  0.00    +0.000 C 
BRANCH  26  27
ATOM     27  C   UNL     1      -2.548  -1.806 -12.781  0.00  0.00    +0.000 C 
ATOM     28  H   UNL     1      -3.571  -1.949 -13.151  0.00  0.00    +0.000 HD
ATOM     29  H   UNL     1      -2.364  -2.531 -11.979  0.00  0.00    +0.000 HD
BRANCH  27  30
ATOM     30  C   UNL     1      -2.385  -0.385 -12.243  0.00  0.00    +0.000 C 
ATOM     31  H   UNL     1      -3.261   0.219 -12.515  0.00  0.00    +0.000 HD
ATOM     32  H   UNL     1      -1.519   0.093 -12.716  0.00  0.00    +0.000 HD
BRANCH  30  33
ATOM     33  C   UNL     1      -2.177  -0.384 -10.757  0.00  0.00    +0.000 C 
ATOM     34  C   UNL     1      -3.123  -0.714  -9.870  0.00  0.00    +0.000 C 
ATOM     35  H   UNL     1      -1.201  -0.081 -10.390  0.00  0.00    +0.000 HD
ATOM     36  H   UNL     1      -2.910  -0.685  -8.807  0.00  0.00    +0.000 HD
ATOM     37  H   UNL     1      -4.116  -1.015 -10.183  0.00  0.00    +0.000 HD
ENDBRANCH  30  33
ENDBRANCH  27  30
ENDBRANCH  26  27
ENDBRANCH  22  26
ENDBRANCH   2  21
BRANCH   5  38
ATOM     38  C   UNL     1       1.320   1.073 -12.106  0.00  0.00    +0.000 C 
ATOM     39  H   UNL     1       1.662   2.112 -12.054  0.00  0.00    +0.000 HD
ATOM     40  H   UNL     1       1.654   0.570 -11.192  0.00  0.00    +0.000 HD
ATOM     41  H   UNL     1       0.225   1.067 -12.106  0.00  0.00    +0.000 HD
ENDBRANCH   5  38
TORSDOF 8
ENDMDL
MODEL 10
REMARK VINA RESULT:    -4.988     21.573     23.973
REMARK INTER + INTRA:          -7.552
REMARK INTER:                  -6.884
REMARK INTRA:                  -0.668
REMARK UNBOUND:                -0.668
REMARK  Name = 5365976
REMARK  8 active torsions:
REMARK  status: ('A' for Active; 'I' for Inactive)
REMARK    1  A    between atoms: C_2  and  C_7
REMARK    2  A    between atoms: C_2  and  C_8
REMARK    3  A    between atoms: C_3  and  C_10
REMARK    4  A    between atoms: C_6  and  C_11
REMARK    5  A    between atoms: C_12  and  C_13
REMARK    6  A    between atoms: C_13  and  C_14
REMARK    7  A    between atoms: C_14  and  C_15
REMARK    8  A    between atoms: C_15  and  C_16
REMARK                            x       y       z     vdW  Elec       q    Type
REMARK                         _______ _______ _______ _____ _____    ______ ____
ROOT
ATOM      1  C   UNL     1      -0.139  -0.259 -12.646  0.00  0.00    +0.000 C 
ATOM      2  C   UNL     1       0.327  -1.733 -12.920  0.00  0.00    +0.000 C 
ATOM      3  C   UNL     1      -0.673   0.362 -13.960  0.00  0.00    +0.000 C 
ATOM      4  C   UNL     1      -1.807  -0.451 -14.590  0.00  0.00    +0.000 C 
ATOM      5  C   UNL     1      -0.706  -2.531 -13.703  0.00  0.00    +0.000 C 
ATOM      6  C   UNL     1      -1.653  -1.935 -14.450  0.00  0.00    +0.000 C 
ATOM      7  H   UNL     1       0.429  -2.213 -11.935  0.00  0.00    +0.000 HD
ATOM      8  H   UNL     1       0.145   0.446 -14.687  0.00  0.00    +0.000 HD
ATOM      9  H   UNL     1      -1.023   1.388 -13.786  0.00  0.00    +0.000 HD
ATOM     10  H   UNL     1      -1.882  -0.192 -15.653  0.00  0.00    +0.000 HD
ATOM     11  H   UNL     1      -2.761  -0.163 -14.132  0.00  0.00    +0.000 HD
ATOM     12  H   UNL     1      -2.379  -2.543 -14.983  0.00  0.00    +0.000 HD
ENDROOT
BRANCH   1  13
ATOM     13  C   UNL     1      -1.250  -0.253 -11.566  0.00  0.00    +0.000 C 
ATOM     14  H   UNL     1      -1.710   0.738 -11.484  0.00  0.00    +0.000 HD
ATOM     15  H   UNL     1      -2.050  -0.969 -11.777  0.00  0.00    +0.000 HD
ATOM     16  H   UNL     1      -0.838  -0.508 -10.583  0.00  0.00    +0.000 HD
ENDBRANCH   1  13
BRANCH   1  17
ATOM     17  C   UNL     1       1.011   0.619 -12.106  0.00  0.00    +0.000 C 
ATOM     18  H   UNL     1       1.952   0.389 -12.618  0.00  0.00    +0.000 HD
ATOM     19  H   UNL     1       0.800   1.684 -12.259  0.00  0.00    +0.000 HD
ATOM     20  H   UNL     1       1.183   0.457 -11.036  0.00  0.00    +0.000 HD
ENDBRANCH   1  17
BRANCH   2  21
ATOM     21  C   UNL     1       1.656  -1.810 -13.627  0.00  0.00    +0.000 C 
ATOM     22  C   UNL     1       2.657  -2.603 -13.227  0.00  0.00    +0.000 C 
ATOM     23  H   UNL     1       1.781  -1.185 -14.509  0.00  0.00    +0.000 HD
ATOM     24  H   UNL     1       2.564  -3.240 -12.354  0.00  0.00    +0.000 HD
BRANCH  22  26
ATOM     25  O   UNL     1       4.397  -3.678 -14.444  0.00  0.00    +0.000 OA
ATOM     26  C   UNL     1       3.951  -2.636 -13.969  0.00  0.00    +0.000 C 
BRANCH  26  27
ATOM     27  C   UNL     1       4.669  -1.303 -14.088  0.00  0.00    +0.000 C 
ATOM     28  H   UNL     1       4.208  -0.605 -13.378  0.00  0.00    +0.000 HD
ATOM     29  H   UNL     1       5.717  -1.452 -13.798  0.00  0.00    +0.000 HD
BRANCH  27  30
ATOM     30  C   UNL     1       4.598  -0.728 -15.502  0.00  0.00    +0.000 C 
ATOM     31  H   UNL     1       4.443   0.358 -15.455  0.00  0.00    +0.000 HD
ATOM     32  H   UNL     1       3.730  -1.144 -16.027  0.00  0.00    +0.000 HD
BRANCH  30  33
ATOM     33  C   UNL     1       5.833  -1.056 -16.288  0.00  0.00    +0.000 C 
ATOM     34  C   UNL     1       5.859  -1.911 -17.317  0.00  0.00    +0.000 C 
ATOM     35  H   UNL     1       6.760  -0.578 -15.985  0.00  0.00    +0.000 HD
ATOM     36  H   UNL     1       6.788  -2.111 -17.839  0.00  0.00    +0.000 HD
ATOM     37  H   UNL     1       4.964  -2.420 -17.655  0.00  0.00    +0.000 HD
ENDBRANCH  30  33
ENDBRANCH  27  30
ENDBRANCH  26  27
ENDBRANCH  22  26
ENDBRANCH   2  21
BRANCH   5  38
ATOM     38  C   UNL     1      -0.631  -4.029 -13.591  0.00  0.00    +0.000 C 
ATOM     39  H   UNL     1       0.403  -4.373 -13.686  0.00  0.00    +0.000 HD
ATOM     40  H   UNL     1      -1.218  -4.530 -14.367  0.00  0.00    +0.000 HD
ATOM     41  H   UNL     1      -1.018  -4.356 -12.620  0.00  0.00    +0.000 HD
ENDBRANCH   5  38
TORSDOF 8
ENDMDL
