MODEL 1
REMARK VINA RESULT:    -4.641      0.000      0.000
REMARK INTER + INTRA:          -5.078
REMARK INTER:                  -5.049
REMARK INTRA:                  -0.029
REMARK UNBOUND:                -0.030
REMARK  Name = 7519
REMARK  2 active torsions:
REMARK  status: ('A' for Active; 'I' for Inactive)
REMARK    1  A    between atoms: O_1  and  C_2
REMARK    2  A    between atoms: O_1  and  C_8
REMARK                            x       y       z     vdW  Elec       q    Type
REMARK                         _______ _______ _______ _____ _____    ______ ____
ROOT
ATOM      1  C   UNL     1      -1.727   8.783 -10.831  0.00  0.00    +0.000 A 
ATOM      2  C   UNL     1      -2.136   7.479 -11.111  0.00  0.00    +0.000 A 
ATOM      3  C   UNL     1      -2.099   9.389  -9.631  0.00  0.00    +0.000 A 
ATOM      4  C   UNL     1      -2.917   6.781 -10.190  0.00  0.00    +0.000 A 
ATOM      5  C   UNL     1      -2.880   8.691  -8.710  0.00  0.00    +0.000 A 
ATOM      6  C   UNL     1      -3.289   7.387  -8.989  0.00  0.00    +0.000 A 
ATOM      7  H   UNL     1      -1.882   6.949 -12.023  0.00  0.00    +0.000 HD
ATOM      8  H   UNL     1      -1.784  10.405  -9.408  0.00  0.00    +0.000 HD
ATOM      9  H   UNL     1      -3.235   5.766 -10.406  0.00  0.00    +0.000 HD
ATOM     10  H   UNL     1      -3.170   9.162  -7.776  0.00  0.00    +0.000 HD
ATOM     11  H   UNL     1      -3.897   6.842  -8.273  0.00  0.00    +0.000 HD
ENDROOT
BRANCH   1  12
ATOM     12  O   UNL     1      -0.965   9.465 -11.730  0.00  0.00    +0.000 OA
BRANCH  12  13
ATOM     13  C   UNL     1      -0.237   8.692 -12.683  0.00  0.00    +0.000 C 
ATOM     14  H   UNL     1       0.228   9.328 -13.445  0.00  0.00    +0.000 HD
ATOM     15  H   UNL     1      -0.860   7.906 -13.123  0.00  0.00    +0.000 HD
ATOM     16  H   UNL     1       0.575   8.194 -12.143  0.00  0.00    +0.000 HD
ENDBRANCH  12  13
ENDBRANCH   1  12
TORSDOF 2
ENDMDL
MODEL 2
REMARK VINA RESULT:    -4.259     12.812     13.759
REMARK INTER + INTRA:          -4.662
REMARK INTER:                  -4.632
REMARK INTRA:                  -0.030
REMARK UNBOUND:                -0.030
REMARK  Name = 7519
REMARK  2 active torsions:
REMARK  status: ('A' for Active; 'I' for Inactive)
REMARK    1  A    between atoms: O_1  and  C_2
REMARK    2  A    between atoms: O_1  and  C_8
REMARK                            x       y       z     vdW  Elec       q    Type
REMARK                         _______ _______ _______ _____ _____    ______ ____
ROOT
ATOM      1  C   UNL     1       3.829  10.181   1.383  0.00  0.00    +0.000 A 
ATOM      2  C   UNL     1       3.477   9.336   2.436  0.00  0.00    +0.000 A 
ATOM      3  C   UNL     1       5.026   9.979   0.697  0.00  0.00    +0.000 A 
ATOM      4  C   UNL     1       4.323   8.289   2.802  0.00  0.00    +0.000 A 
ATOM      5  C   UNL     1       5.873   8.932   1.063  0.00  0.00    +0.000 A 
ATOM      6  C   UNL     1       5.521   8.087   2.115  0.00  0.00    +0.000 A 
ATOM      7  H   UNL     1       2.563   9.436   3.011  0.00  0.00    +0.000 HD
ATOM      8  H   UNL     1       5.306  10.634  -0.125  0.00  0.00    +0.000 HD
ATOM      9  H   UNL     1       4.051   7.631   3.621  0.00  0.00    +0.000 HD
ATOM     10  H   UNL     1       6.805   8.775   0.529  0.00  0.00    +0.000 HD
ATOM     11  H   UNL     1       6.179   7.272   2.401  0.00  0.00    +0.000 HD
ENDROOT
BRANCH   1  12
ATOM     12  O   UNL     1       3.004  11.203   1.025  0.00  0.00    +0.000 OA
BRANCH  12  13
ATOM     13  C   UNL     1       3.270  11.848  -0.219  0.00  0.00    +0.000 C 
ATOM     14  H   UNL     1       2.588  12.688  -0.390  0.00  0.00    +0.000 HD
ATOM     15  H   UNL     1       3.267  11.135  -1.050  0.00  0.00    +0.000 HD
ATOM     16  H   UNL     1       4.281  12.264  -0.158  0.00  0.00    +0.000 HD
ENDBRANCH  12  13
ENDBRANCH   1  12
TORSDOF 2
ENDMDL
MODEL 3
REMARK VINA RESULT:    -4.158     26.130     27.072
REMARK INTER + INTRA:          -4.552
REMARK INTER:                  -4.529
REMARK INTRA:                  -0.024
REMARK UNBOUND:                -0.030
REMARK  Name = 7519
REMARK  2 active torsions:
REMARK  status: ('A' for Active; 'I' for Inactive)
REMARK    1  A    between atoms: O_1  and  C_2
REMARK    2  A    between atoms: O_1  and  C_8
REMARK                            x       y       z     vdW  Elec       q    Type
REMARK                         _______ _______ _______ _____ _____    ______ ____
ROOT
ATOM      1  C   UNL     1     -21.061  -2.962   5.526  0.00  0.00    +0.000 A 
ATOM      2  C   UNL     1     -20.853  -2.615   6.860  0.00  0.00    +0.000 A 
ATOM      3  C   UNL     1     -20.965  -1.991   4.529  0.00  0.00    +0.000 A 
ATOM      4  C   UNL     1     -20.548  -1.296   7.198  0.00  0.00    +0.000 A 
ATOM      5  C   UNL     1     -20.660  -0.673   4.866  0.00  0.00    +0.000 A 
ATOM      6  C   UNL     1     -20.451  -0.325   6.200  0.00  0.00    +0.000 A 
ATOM      7  H   UNL     1     -20.912  -3.318   7.684  0.00  0.00    +0.000 HD
ATOM      8  H   UNL     1     -21.127  -2.256   3.487  0.00  0.00    +0.000 HD
ATOM      9  H   UNL     1     -20.385  -1.024   8.236  0.00  0.00    +0.000 HD
ATOM     10  H   UNL     1     -20.585   0.083   4.090  0.00  0.00    +0.000 HD
ATOM     11  H   UNL     1     -20.214   0.701   6.464  0.00  0.00    +0.000 HD
ENDROOT
BRANCH   1  12
ATOM     12  O   UNL     1     -21.359  -4.249   5.196  0.00  0.00    +0.000 OA
BRANCH  12  13
ATOM     13  C   UNL     1     -20.613  -4.836   4.131  0.00  0.00    +0.000 C 
ATOM     14  H   UNL     1     -19.727  -4.240   3.884  0.00  0.00    +0.000 HD
ATOM     15  H   UNL     1     -21.242  -5.026   3.256  0.00  0.00    +0.000 HD
ATOM     16  H   UNL     1     -20.254  -5.808   4.486  0.00  0.00    +0.000 HD
ENDBRANCH  12  13
ENDBRANCH   1  12
TORSDOF 2
ENDMDL
MODEL 4
REMARK VINA RESULT:    -4.091     12.652     13.495
REMARK INTER + INTRA:          -4.480
REMARK INTER:                  -4.461
REMARK INTRA:                  -0.019
REMARK UNBOUND:                -0.030
REMARK  Name = 7519
REMARK  2 active torsions:
REMARK  status: ('A' for Active; 'I' for Inactive)
REMARK    1  A    between atoms: O_1  and  C_2
REMARK    2  A    between atoms: O_1  and  C_8
REMARK                            x       y       z     vdW  Elec       q    Type
REMARK                         _______ _______ _______ _____ _____    ______ ____
ROOT
ATOM      1  C   UNL     1       5.553  10.937   0.158  0.00  0.00    +0.000 A 
ATOM      2  C   UNL     1       5.438   9.640   0.659  0.00  0.00    +0.000 A 
ATOM      3  C   UNL     1       6.545  11.239  -0.775  0.00  0.00    +0.000 A 
ATOM      4  C   UNL     1       6.316   8.646   0.227  0.00  0.00    +0.000 A 
ATOM      5  C   UNL     1       7.423  10.246  -1.207  0.00  0.00    +0.000 A 
ATOM      6  C   UNL     1       7.309   8.949  -0.706  0.00  0.00    +0.000 A 
ATOM      7  H   UNL     1       4.691   9.337   1.384  0.00  0.00    +0.000 HD
ATOM      8  H   UNL     1       6.639  12.249  -1.169  0.00  0.00    +0.000 HD
ATOM      9  H   UNL     1       6.228   7.636   0.616  0.00  0.00    +0.000 HD
ATOM     10  H   UNL     1       8.196  10.480  -1.933  0.00  0.00    +0.000 HD
ATOM     11  H   UNL     1       7.992   8.174  -1.042  0.00  0.00    +0.000 HD
ENDROOT
BRANCH   1  12
ATOM     12  O   UNL     1       4.696  11.908   0.579  0.00  0.00    +0.000 OA
BRANCH  12  13
ATOM     13  C   UNL     1       3.350  11.834   0.112  0.00  0.00    +0.000 C 
ATOM     14  H   UNL     1       3.304  11.850  -0.983  0.00  0.00    +0.000 HD
ATOM     15  H   UNL     1       2.724  12.608   0.565  0.00  0.00    +0.000 HD
ATOM     16  H   UNL     1       2.949  10.867   0.434  0.00  0.00    +0.000 HD
ENDBRANCH  12  13
ENDBRANCH   1  12
TORSDOF 2
ENDMDL
MODEL 5
REMARK VINA RESULT:    -4.068      9.295      9.930
REMARK INTER + INTRA:          -4.455
REMARK INTER:                  -4.424
REMARK INTRA:                  -0.030
REMARK UNBOUND:                -0.030
REMARK  Name = 7519
REMARK  2 active torsions:
REMARK  status: ('A' for Active; 'I' for Inactive)
REMARK    1  A    between atoms: O_1  and  C_2
REMARK    2  A    between atoms: O_1  and  C_8
REMARK                            x       y       z     vdW  Elec       q    Type
REMARK                         _______ _______ _______ _____ _____    ______ ____
ROOT
ATOM      1  C   UNL     1     -10.088   5.782  -5.492  0.00  0.00    +0.000 A 
ATOM      2  C   UNL     1     -10.769   4.565  -5.528  0.00  0.00    +0.000 A 
ATOM      3  C   UNL     1      -8.758   5.824  -5.076  0.00  0.00    +0.000 A 
ATOM      4  C   UNL     1     -10.120   3.391  -5.148  0.00  0.00    +0.000 A 
ATOM      5  C   UNL     1      -8.107   4.650  -4.696  0.00  0.00    +0.000 A 
ATOM      6  C   UNL     1      -8.788   3.433  -4.732  0.00  0.00    +0.000 A 
ATOM      7  H   UNL     1     -11.803   4.461  -5.841  0.00  0.00    +0.000 HD
ATOM      8  H   UNL     1      -8.221   6.770  -5.046  0.00  0.00    +0.000 HD
ATOM      9  H   UNL     1     -10.648   2.443  -5.176  0.00  0.00    +0.000 HD
ATOM     10  H   UNL     1      -7.072   4.683  -4.371  0.00  0.00    +0.000 HD
ATOM     11  H   UNL     1      -8.283   2.519  -4.436  0.00  0.00    +0.000 HD
ENDROOT
BRANCH   1  12
ATOM     12  O   UNL     1     -10.722   6.928  -5.863  0.00  0.00    +0.000 OA
BRANCH  12  13
ATOM     13  C   UNL     1      -9.945   8.125  -5.877  0.00  0.00    +0.000 C 
ATOM     14  H   UNL     1      -9.150   8.079  -6.630  0.00  0.00    +0.000 HD
ATOM     15  H   UNL     1      -9.561   8.366  -4.881  0.00  0.00    +0.000 HD
ATOM     16  H   UNL     1     -10.614   8.941  -6.170  0.00  0.00    +0.000 HD
ENDBRANCH  12  13
ENDBRANCH   1  12
TORSDOF 2
ENDMDL
MODEL 6
REMARK VINA RESULT:    -4.056      1.752      2.345
REMARK INTER + INTRA:          -4.442
REMARK INTER:                  -4.422
REMARK INTRA:                  -0.020
REMARK UNBOUND:                -0.030
REMARK  Name = 7519
REMARK  2 active torsions:
REMARK  status: ('A' for Active; 'I' for Inactive)
REMARK    1  A    between atoms: O_1  and  C_2
REMARK    2  A    between atoms: O_1  and  C_8
REMARK                            x       y       z     vdW  Elec       q    Type
REMARK                         _______ _______ _______ _____ _____    ______ ____
ROOT
ATOM      1  C   UNL     1      -2.909   7.019 -10.682  0.00  0.00    +0.000 A 
ATOM      2  C   UNL     1      -3.982   6.894 -11.564  0.00  0.00    +0.000 A 
ATOM      3  C   UNL     1      -3.098   6.793  -9.318  0.00  0.00    +0.000 A 
ATOM      4  C   UNL     1      -5.244   6.544 -11.083  0.00  0.00    +0.000 A 
ATOM      5  C   UNL     1      -4.359   6.443  -8.836  0.00  0.00    +0.000 A 
ATOM      6  C   UNL     1      -5.432   6.319  -9.718  0.00  0.00    +0.000 A 
ATOM      7  H   UNL     1      -3.906   7.055 -12.634  0.00  0.00    +0.000 HD
ATOM      8  H   UNL     1      -2.265   6.889  -8.625  0.00  0.00    +0.000 HD
ATOM      9  H   UNL     1      -6.080   6.447 -11.768  0.00  0.00    +0.000 HD
ATOM     10  H   UNL     1      -4.506   6.268  -7.775  0.00  0.00    +0.000 HD
ATOM     11  H   UNL     1      -6.414   6.046  -9.345  0.00  0.00    +0.000 HD
ENDROOT
BRANCH   1  12
ATOM     12  O   UNL     1      -1.678   7.360 -11.151  0.00  0.00    +0.000 OA
BRANCH  12  13
ATOM     13  C   UNL     1      -1.540   8.658 -11.727  0.00  0.00    +0.000 C 
ATOM     14  H   UNL     1      -0.487   8.947 -11.818  0.00  0.00    +0.000 HD
ATOM     15  H   UNL     1      -2.129   9.404 -11.184  0.00  0.00    +0.000 HD
ATOM     16  H   UNL     1      -1.945   8.606 -12.743  0.00  0.00    +0.000 HD
ENDBRANCH  12  13
ENDBRANCH   1  12
TORSDOF 2
ENDMDL
MODEL 7
REMARK VINA RESULT:    -4.047     12.998     13.199
REMARK INTER + INTRA:          -4.432
REMARK INTER:                  -4.401
REMARK INTRA:                  -0.030
REMARK UNBOUND:                -0.030
REMARK  Name = 7519
REMARK  2 active torsions:
REMARK  status: ('A' for Active; 'I' for Inactive)
REMARK    1  A    between atoms: O_1  and  C_2
REMARK    2  A    between atoms: O_1  and  C_8
REMARK                            x       y       z     vdW  Elec       q    Type
REMARK                         _______ _______ _______ _____ _____    ______ ____
ROOT
ATOM      1  C   UNL     1       5.801  10.878  -0.271  0.00  0.00    +0.000 A 
ATOM      2  C   UNL     1       4.707  11.703  -0.010  0.00  0.00    +0.000 A 
ATOM      3  C   UNL     1       5.830   9.578   0.234  0.00  0.00    +0.000 A 
ATOM      4  C   UNL     1       3.642  11.228   0.757  0.00  0.00    +0.000 A 
ATOM      5  C   UNL     1       4.766   9.103   1.001  0.00  0.00    +0.000 A 
ATOM      6  C   UNL     1       3.672   9.928   1.262  0.00  0.00    +0.000 A 
ATOM      7  H   UNL     1       4.620  12.722  -0.371  0.00  0.00    +0.000 HD
ATOM      8  H   UNL     1       6.680   8.930   0.034  0.00  0.00    +0.000 HD
ATOM      9  H   UNL     1       2.790  11.869   0.961  0.00  0.00    +0.000 HD
ATOM     10  H   UNL     1       4.788   8.091   1.394  0.00  0.00    +0.000 HD
ATOM     11  H   UNL     1       2.843   9.559   1.858  0.00  0.00    +0.000 HD
ENDROOT
BRANCH   1  12
ATOM     12  O   UNL     1       6.840  11.341  -1.018  0.00  0.00    +0.000 OA
BRANCH  12  13
ATOM     13  C   UNL     1       7.889  10.420  -1.314  0.00  0.00    +0.000 C 
ATOM     14  H   UNL     1       8.018  10.292  -2.395  0.00  0.00    +0.000 HD
ATOM     15  H   UNL     1       7.744   9.466  -0.797  0.00  0.00    +0.000 HD
ATOM     16  H   UNL     1       8.818  10.855  -0.931  0.00  0.00    +0.000 HD
ENDBRANCH  12  13
ENDBRANCH   1  12
TORSDOF 2
ENDMDL
MODEL 8
REMARK VINA RESULT:    -3.945     26.178     27.725
REMARK INTER + INTRA:          -4.321
REMARK INTER:                  -4.303
REMARK INTRA:                  -0.018
REMARK UNBOUND:                -0.030
REMARK  Name = 7519
REMARK  2 active torsions:
REMARK  status: ('A' for Active; 'I' for Inactive)
REMARK    1  A    between atoms: O_1  and  C_2
REMARK    2  A    between atoms: O_1  and  C_8
REMARK                            x       y       z     vdW  Elec       q    Type
REMARK                         _______ _______ _______ _____ _____    ______ ____
ROOT
ATOM      1  C   UNL     1     -21.297  -2.006   6.926  0.00  0.00    +0.000 A 
ATOM      2  C   UNL     1     -20.627  -0.783   6.951  0.00  0.00    +0.000 A 
ATOM      3  C   UNL     1     -21.673  -2.570   5.707  0.00  0.00    +0.000 A 
ATOM      4  C   UNL     1     -20.333  -0.124   5.757  0.00  0.00    +0.000 A 
ATOM      5  C   UNL     1     -21.379  -1.912   4.513  0.00  0.00    +0.000 A 
ATOM      6  C   UNL     1     -20.709  -0.689   4.537  0.00  0.00    +0.000 A 
ATOM      7  H   UNL     1     -20.306  -0.288   7.862  0.00  0.00    +0.000 HD
ATOM      8  H   UNL     1     -22.195  -3.524   5.681  0.00  0.00    +0.000 HD
ATOM      9  H   UNL     1     -19.812   0.828   5.775  0.00  0.00    +0.000 HD
ATOM     10  H   UNL     1     -21.671  -2.351   3.564  0.00  0.00    +0.000 HD
ATOM     11  H   UNL     1     -20.480  -0.176   3.609  0.00  0.00    +0.000 HD
ENDROOT
BRANCH   1  12
ATOM     12  O   UNL     1     -21.584  -2.649   8.091  0.00  0.00    +0.000 OA
BRANCH  12  13
ATOM     13  C   UNL     1     -22.703  -2.173   8.837  0.00  0.00    +0.000 C 
ATOM     14  H   UNL     1     -23.108  -2.950   9.494  0.00  0.00    +0.000 HD
ATOM     15  H   UNL     1     -23.467  -1.741   8.183  0.00  0.00    +0.000 HD
ATOM     16  H   UNL     1     -22.341  -1.366   9.483  0.00  0.00    +0.000 HD
ENDBRANCH  12  13
ENDBRANCH   1  12
TORSDOF 2
ENDMDL
MODEL 9
REMARK VINA RESULT:    -3.908     16.762     17.125
REMARK INTER + INTRA:          -4.280
REMARK INTER:                  -4.257
REMARK INTRA:                  -0.023
REMARK UNBOUND:                -0.030
REMARK  Name = 7519
REMARK  2 active torsions:
REMARK  status: ('A' for Active; 'I' for Inactive)
REMARK    1  A    between atoms: O_1  and  C_2
REMARK    2  A    between atoms: O_1  and  C_8
REMARK                            x       y       z     vdW  Elec       q    Type
REMARK                         _______ _______ _______ _____ _____    ______ ____
ROOT
ATOM      1  C   UNL     1      -9.082  13.289   4.174  0.00  0.00    +0.000 A 
ATOM      2  C   UNL     1      -8.382  14.464   4.446  0.00  0.00    +0.000 A 
ATOM      3  C   UNL     1      -8.472  12.051   4.377  0.00  0.00    +0.000 A 
ATOM      4  C   UNL     1      -7.072  14.402   4.921  0.00  0.00    +0.000 A 
ATOM      5  C   UNL     1      -7.162  11.988   4.852  0.00  0.00    +0.000 A 
ATOM      6  C   UNL     1      -6.462  13.164   5.124  0.00  0.00    +0.000 A 
ATOM      7  H   UNL     1      -8.796  15.458   4.311  0.00  0.00    +0.000 HD
ATOM      8  H   UNL     1      -9.012  11.131   4.167  0.00  0.00    +0.000 HD
ATOM      9  H   UNL     1      -6.526  15.316   5.133  0.00  0.00    +0.000 HD
ATOM     10  H   UNL     1      -6.686  11.025   5.010  0.00  0.00    +0.000 HD
ATOM     11  H   UNL     1      -5.442  13.116   5.493  0.00  0.00    +0.000 HD
ENDROOT
BRANCH   1  12
ATOM     12  O   UNL     1     -10.361  13.350   3.711  0.00  0.00    +0.000 OA
BRANCH  12  13
ATOM     13  C   UNL     1     -10.609  14.209   2.599  0.00  0.00    +0.000 C 
ATOM     14  H   UNL     1     -11.328  14.996   2.852  0.00  0.00    +0.000 HD
ATOM     15  H   UNL     1     -10.908  13.642   1.712  0.00  0.00    +0.000 HD
ATOM     16  H   UNL     1      -9.663  14.706   2.358  0.00  0.00    +0.000 HD
ENDBRANCH  12  13
ENDBRANCH   1  12
TORSDOF 2
ENDMDL
MODEL 10
REMARK VINA RESULT:    -3.723     12.935     13.815
REMARK INTER + INTRA:          -4.079
REMARK INTER:                  -4.049
REMARK INTRA:                  -0.030
REMARK UNBOUND:                -0.030
REMARK  Name = 7519
REMARK  2 active torsions:
REMARK  status: ('A' for Active; 'I' for Inactive)
REMARK    1  A    between atoms: O_1  and  C_2
REMARK    2  A    between atoms: O_1  and  C_8
REMARK                            x       y       z     vdW  Elec       q    Type
REMARK                         _______ _______ _______ _____ _____    ______ ____
ROOT
ATOM      1  C   UNL     1       6.116   9.272   0.855  0.00  0.00    +0.000 A 
ATOM      2  C   UNL     1       4.746   9.035   0.756  0.00  0.00    +0.000 A 
ATOM      3  C   UNL     1       6.695  10.323   0.143  0.00  0.00    +0.000 A 
ATOM      4  C   UNL     1       3.953   9.848  -0.055  0.00  0.00    +0.000 A 
ATOM      5  C   UNL     1       5.903  11.137  -0.668  0.00  0.00    +0.000 A 
ATOM      6  C   UNL     1       4.533  10.899  -0.767  0.00  0.00    +0.000 A 
ATOM      7  H   UNL     1       4.232   8.236   1.281  0.00  0.00    +0.000 HD
ATOM      8  H   UNL     1       7.763  10.514   0.216  0.00  0.00    +0.000 HD
ATOM      9  H   UNL     1       2.886   9.664  -0.133  0.00  0.00    +0.000 HD
ATOM     10  H   UNL     1       6.353  11.954  -1.222  0.00  0.00    +0.000 HD
ATOM     11  H   UNL     1       3.915  11.531  -1.398  0.00  0.00    +0.000 HD
ENDROOT
BRANCH   1  12
ATOM     12  O   UNL     1       6.890   8.479   1.646  0.00  0.00    +0.000 OA
BRANCH  12  13
ATOM     13  C   UNL     1       6.213   7.592   2.535  0.00  0.00    +0.000 C 
ATOM     14  H   UNL     1       6.713   6.618   2.589  0.00  0.00    +0.000 HD
ATOM     15  H   UNL     1       5.152   7.500   2.281  0.00  0.00    +0.000 HD
ATOM     16  H   UNL     1       6.267   8.033   3.536  0.00  0.00    +0.000 HD
ENDBRANCH  12  13
ENDBRANCH   1  12
TORSDOF 2
ENDMDL
