MODEL 1
REMARK VINA RESULT:    -4.815      0.000      0.000
REMARK INTER + INTRA:          -5.110
REMARK INTER:                  -5.100
REMARK INTRA:                  -0.010
REMARK UNBOUND:                -0.014
REMARK  Name = 240
REMARK  1 active torsions:
REMARK  status: ('A' for Active; 'I' for Inactive)
REMARK    1  A    between atoms: C_2  and  C_8
REMARK                            x       y       z     vdW  Elec       q    Type
REMARK                         _______ _______ _______ _____ _____    ______ ____
ROOT
ATOM      1  C   UNL     1      -1.805   8.677 -10.899  0.00  0.00    +0.000 A 
ATOM      2  C   UNL     1      -2.262   7.364 -11.013  0.00  0.00    +0.000 A 
ATOM      3  C   UNL     1      -2.100   9.423  -9.758  0.00  0.00    +0.000 A 
ATOM      4  C   UNL     1      -3.015   6.797  -9.984  0.00  0.00    +0.000 A 
ATOM      5  C   UNL     1      -2.853   8.855  -8.730  0.00  0.00    +0.000 A 
ATOM      6  C   UNL     1      -3.311   7.542  -8.844  0.00  0.00    +0.000 A 
ATOM      7  H   UNL     1      -2.040   6.771 -11.896  0.00  0.00    +0.000 HD
ATOM      8  H   UNL     1      -1.754  10.447  -9.648  0.00  0.00    +0.000 HD
ATOM      9  H   UNL     1      -3.371   5.774 -10.073  0.00  0.00    +0.000 HD
ATOM     10  H   UNL     1      -3.083   9.436  -7.841  0.00  0.00    +0.000 HD
ATOM     11  H   UNL     1      -3.896   7.100  -8.043  0.00  0.00    +0.000 HD
ENDROOT
BRANCH   1  13
ATOM     12  O   UNL     1       0.035   8.779 -12.384  0.00  0.00    +0.000 OA
ATOM     13  C   UNL     1      -1.020   9.269 -11.972  0.00  0.00    +0.000 C 
ATOM     14  H   UNL     1      -1.412  10.199 -12.417  0.00  0.00    +0.000 HD
ENDBRANCH   1  13
TORSDOF 1
ENDMDL
MODEL 2
REMARK VINA RESULT:    -4.589      2.411      3.825
REMARK INTER + INTRA:          -4.871
REMARK INTER:                  -4.862
REMARK INTRA:                  -0.009
REMARK UNBOUND:                -0.014
REMARK  Name = 240
REMARK  1 active torsions:
REMARK  status: ('A' for Active; 'I' for Inactive)
REMARK    1  A    between atoms: C_2  and  C_8
REMARK                            x       y       z     vdW  Elec       q    Type
REMARK                         _______ _______ _______ _____ _____    ______ ____
ROOT
ATOM      1  C   UNL     1      -3.050   7.469  -9.543  0.00  0.00    +0.000 A 
ATOM      2  C   UNL     1      -2.769   8.776  -9.145  0.00  0.00    +0.000 A 
ATOM      3  C   UNL     1      -2.514   6.970 -10.730  0.00  0.00    +0.000 A 
ATOM      4  C   UNL     1      -1.952   9.585  -9.936  0.00  0.00    +0.000 A 
ATOM      5  C   UNL     1      -1.698   7.779 -11.520  0.00  0.00    +0.000 A 
ATOM      6  C   UNL     1      -1.417   9.087 -11.123  0.00  0.00    +0.000 A 
ATOM      7  H   UNL     1      -3.179   9.179  -8.222  0.00  0.00    +0.000 HD
ATOM      8  H   UNL     1      -2.720   5.955 -11.059  0.00  0.00    +0.000 HD
ATOM      9  H   UNL     1      -1.733  10.603  -9.626  0.00  0.00    +0.000 HD
ATOM     10  H   UNL     1      -1.280   7.391 -12.445  0.00  0.00    +0.000 HD
ATOM     11  H   UNL     1      -0.781   9.716 -11.738  0.00  0.00    +0.000 HD
ENDROOT
BRANCH   1  13
ATOM     12  O   UNL     1      -5.040   6.284  -9.054  0.00  0.00    +0.000 OA
ATOM     13  C   UNL     1      -3.902   6.625  -8.718  0.00  0.00    +0.000 C 
ATOM     14  H   UNL     1      -3.483   6.290  -7.755  0.00  0.00    +0.000 HD
ENDBRANCH   1  13
TORSDOF 1
ENDMDL
MODEL 3
REMARK VINA RESULT:    -4.585     13.560     14.393
REMARK INTER + INTRA:          -4.867
REMARK INTER:                  -4.857
REMARK INTRA:                  -0.010
REMARK UNBOUND:                -0.014
REMARK  Name = 240
REMARK  1 active torsions:
REMARK  status: ('A' for Active; 'I' for Inactive)
REMARK    1  A    between atoms: C_2  and  C_8
REMARK                            x       y       z     vdW  Elec       q    Type
REMARK                         _______ _______ _______ _____ _____    ______ ____
ROOT
ATOM      1  C   UNL     1       4.590   9.312   1.501  0.00  0.00    +0.000 A 
ATOM      2  C   UNL     1       4.008   8.616   2.561  0.00  0.00    +0.000 A 
ATOM      3  C   UNL     1       5.899   9.025   1.112  0.00  0.00    +0.000 A 
ATOM      4  C   UNL     1       4.735   7.633   3.232  0.00  0.00    +0.000 A 
ATOM      5  C   UNL     1       6.625   8.041   1.784  0.00  0.00    +0.000 A 
ATOM      6  C   UNL     1       6.043   7.345   2.844  0.00  0.00    +0.000 A 
ATOM      7  H   UNL     1       2.989   8.829   2.875  0.00  0.00    +0.000 HD
ATOM      8  H   UNL     1       6.372   9.554   0.290  0.00  0.00    +0.000 HD
ATOM      9  H   UNL     1       4.282   7.091   4.058  0.00  0.00    +0.000 HD
ATOM     10  H   UNL     1       7.644   7.817   1.482  0.00  0.00    +0.000 HD
ATOM     11  H   UNL     1       6.609   6.580   3.366  0.00  0.00    +0.000 HD
ENDROOT
BRANCH   1  13
ATOM     12  O   UNL     1       3.300  11.292   1.374  0.00  0.00    +0.000 OA
ATOM     13  C   UNL     1       3.832  10.337   0.801  0.00  0.00    +0.000 C 
ATOM     14  H   UNL     1       3.746  10.229  -0.293  0.00  0.00    +0.000 HD
ENDBRANCH   1  13
TORSDOF 1
ENDMDL
MODEL 4
REMARK VINA RESULT:    -4.506     16.861     18.302
REMARK INTER + INTRA:          -4.783
REMARK INTER:                  -4.773
REMARK INTRA:                  -0.010
REMARK UNBOUND:                -0.014
REMARK  Name = 240
REMARK  1 active torsions:
REMARK  status: ('A' for Active; 'I' for Inactive)
REMARK    1  A    between atoms: C_2  and  C_8
REMARK                            x       y       z     vdW  Elec       q    Type
REMARK                         _______ _______ _______ _____ _____    ______ ____
ROOT
ATOM      1  C   UNL     1      -8.307  11.167   6.638  0.00  0.00    +0.000 A 
ATOM      2  C   UNL     1      -8.046  10.932   5.288  0.00  0.00    +0.000 A 
ATOM      3  C   UNL     1      -7.802  12.310   7.257  0.00  0.00    +0.000 A 
ATOM      4  C   UNL     1      -7.279  11.840   4.557  0.00  0.00    +0.000 A 
ATOM      5  C   UNL     1      -7.035  13.217   6.526  0.00  0.00    +0.000 A 
ATOM      6  C   UNL     1      -6.773  12.982   5.176  0.00  0.00    +0.000 A 
ATOM      7  H   UNL     1      -8.433  10.045   4.791  0.00  0.00    +0.000 HD
ATOM      8  H   UNL     1      -7.993  12.514   8.307  0.00  0.00    +0.000 HD
ATOM      9  H   UNL     1      -7.076  11.656   3.506  0.00  0.00    +0.000 HD
ATOM     10  H   UNL     1      -6.641  14.108   7.009  0.00  0.00    +0.000 HD
ATOM     11  H   UNL     1      -6.177  13.688   4.608  0.00  0.00    +0.000 HD
ENDROOT
BRANCH   1  13
ATOM     12  O   UNL     1      -8.751   9.059   7.618  0.00  0.00    +0.000 OA
ATOM     13  C   UNL     1      -9.107  10.220   7.400  0.00  0.00    +0.000 C 
ATOM     14  H   UNL     1     -10.073  10.587   7.787  0.00  0.00    +0.000 HD
ENDBRANCH   1  13
TORSDOF 1
ENDMDL
MODEL 5
REMARK VINA RESULT:    -4.477     12.895     13.494
REMARK INTER + INTRA:          -4.753
REMARK INTER:                  -4.741
REMARK INTRA:                  -0.012
REMARK UNBOUND:                -0.014
REMARK  Name = 240
REMARK  1 active torsions:
REMARK  status: ('A' for Active; 'I' for Inactive)
REMARK    1  A    between atoms: C_2  and  C_8
REMARK                            x       y       z     vdW  Elec       q    Type
REMARK                         _______ _______ _______ _____ _____    ______ ____
ROOT
ATOM      1  C   UNL     1       5.107  10.768   0.057  0.00  0.00    +0.000 A 
ATOM      2  C   UNL     1       5.011   9.438   0.468  0.00  0.00    +0.000 A 
ATOM      3  C   UNL     1       6.299  11.246  -0.487  0.00  0.00    +0.000 A 
ATOM      4  C   UNL     1       6.108   8.587   0.335  0.00  0.00    +0.000 A 
ATOM      5  C   UNL     1       7.395  10.394  -0.619  0.00  0.00    +0.000 A 
ATOM      6  C   UNL     1       7.300   9.065  -0.208  0.00  0.00    +0.000 A 
ATOM      7  H   UNL     1       4.088   9.051   0.894  0.00  0.00    +0.000 HD
ATOM      8  H   UNL     1       6.396  12.278  -0.813  0.00  0.00    +0.000 HD
ATOM      9  H   UNL     1       6.033   7.551   0.655  0.00  0.00    +0.000 HD
ATOM     10  H   UNL     1       8.324  10.766  -1.043  0.00  0.00    +0.000 HD
ATOM     11  H   UNL     1       8.154   8.402  -0.311  0.00  0.00    +0.000 HD
ENDROOT
BRANCH   1  13
ATOM     12  O   UNL     1       3.192  11.617   1.159  0.00  0.00    +0.000 OA
ATOM     13  C   UNL     1       3.963  11.656   0.196  0.00  0.00    +0.000 C 
ATOM     14  H   UNL     1       3.804  12.389  -0.614  0.00  0.00    +0.000 HD
ENDBRANCH   1  13
TORSDOF 1
ENDMDL
MODEL 6
REMARK VINA RESULT:    -4.371     25.973     26.956
REMARK INTER + INTRA:          -4.641
REMARK INTER:                  -4.632
REMARK INTRA:                  -0.009
REMARK UNBOUND:                -0.014
REMARK  Name = 240
REMARK  1 active torsions:
REMARK  status: ('A' for Active; 'I' for Inactive)
REMARK    1  A    between atoms: C_2  and  C_8
REMARK                            x       y       z     vdW  Elec       q    Type
REMARK                         _______ _______ _______ _____ _____    ______ ____
ROOT
ATOM      1  C   UNL     1     -21.122  -2.861   5.216  0.00  0.00    +0.000 A 
ATOM      2  C   UNL     1     -20.806  -2.736   6.569  0.00  0.00    +0.000 A 
ATOM      3  C   UNL     1     -21.058  -1.748   4.378  0.00  0.00    +0.000 A 
ATOM      4  C   UNL     1     -20.426  -1.497   7.084  0.00  0.00    +0.000 A 
ATOM      5  C   UNL     1     -20.678  -0.509   4.894  0.00  0.00    +0.000 A 
ATOM      6  C   UNL     1     -20.362  -0.383   6.247  0.00  0.00    +0.000 A 
ATOM      7  H   UNL     1     -20.851  -3.595   7.234  0.00  0.00    +0.000 HD
ATOM      8  H   UNL     1     -21.300  -1.822   3.322  0.00  0.00    +0.000 HD
ATOM      9  H   UNL     1     -20.180  -1.399   8.138  0.00  0.00    +0.000 HD
ATOM     10  H   UNL     1     -20.628   0.359   4.242  0.00  0.00    +0.000 HD
ATOM     11  H   UNL     1     -20.067   0.581   6.648  0.00  0.00    +0.000 HD
ENDROOT
BRANCH   1  13
ATOM     12  O   UNL     1     -20.714  -4.963   4.207  0.00  0.00    +0.000 OA
ATOM     13  C   UNL     1     -21.518  -4.154   4.678  0.00  0.00    +0.000 C 
ATOM     14  H   UNL     1     -22.594  -4.394   4.708  0.00  0.00    +0.000 HD
ENDBRANCH   1  13
TORSDOF 1
ENDMDL
MODEL 7
REMARK VINA RESULT:    -4.369      9.169      9.894
REMARK INTER + INTRA:          -4.638
REMARK INTER:                  -4.624
REMARK INTRA:                  -0.014
REMARK UNBOUND:                -0.014
REMARK  Name = 240
REMARK  1 active torsions:
REMARK  status: ('A' for Active; 'I' for Inactive)
REMARK    1  A    between atoms: C_2  and  C_8
REMARK                            x       y       z     vdW  Elec       q    Type
REMARK                         _______ _______ _______ _____ _____    ______ ____
ROOT
ATOM      1  C   UNL     1      -9.943   5.849  -5.395  0.00  0.00    +0.000 A 
ATOM      2  C   UNL     1     -10.711   4.690  -5.500  0.00  0.00    +0.000 A 
ATOM      3  C   UNL     1      -8.615   5.770  -4.976  0.00  0.00    +0.000 A 
ATOM      4  C   UNL     1     -10.151   3.452  -5.186  0.00  0.00    +0.000 A 
ATOM      5  C   UNL     1      -8.056   4.532  -4.662  0.00  0.00    +0.000 A 
ATOM      6  C   UNL     1      -8.824   3.372  -4.767  0.00  0.00    +0.000 A 
ATOM      7  H   UNL     1     -11.748   4.736  -5.826  0.00  0.00    +0.000 HD
ATOM      8  H   UNL     1      -7.998   6.660  -4.887  0.00  0.00    +0.000 HD
ATOM      9  H   UNL     1     -10.750   2.549  -5.268  0.00  0.00    +0.000 HD
ATOM     10  H   UNL     1      -7.021   4.470  -4.335  0.00  0.00    +0.000 HD
ATOM     11  H   UNL     1      -8.389   2.409  -4.522  0.00  0.00    +0.000 HD
ENDROOT
BRANCH   1  13
ATOM     12  O   UNL     1      -9.914   8.206  -5.607  0.00  0.00    +0.000 OA
ATOM     13  C   UNL     1     -10.526   7.141  -5.723  0.00  0.00    +0.000 C 
ATOM     14  H   UNL     1     -11.566   7.135  -6.091  0.00  0.00    +0.000 HD
ENDBRANCH   1  13
TORSDOF 1
ENDMDL
MODEL 8
REMARK VINA RESULT:    -4.251     12.873     13.091
REMARK INTER + INTRA:          -4.514
REMARK INTER:                  -4.500
REMARK INTRA:                  -0.014
REMARK UNBOUND:                -0.014
REMARK  Name = 240
REMARK  1 active torsions:
REMARK  status: ('A' for Active; 'I' for Inactive)
REMARK    1  A    between atoms: C_2  and  C_8
REMARK                            x       y       z     vdW  Elec       q    Type
REMARK                         _______ _______ _______ _____ _____    ______ ____
ROOT
ATOM      1  C   UNL     1       5.775  10.768  -0.284  0.00  0.00    +0.000 A 
ATOM      2  C   UNL     1       4.710  11.641  -0.064  0.00  0.00    +0.000 A 
ATOM      3  C   UNL     1       5.739   9.476   0.240  0.00  0.00    +0.000 A 
ATOM      4  C   UNL     1       3.608  11.222   0.682  0.00  0.00    +0.000 A 
ATOM      5  C   UNL     1       4.637   9.058   0.986  0.00  0.00    +0.000 A 
ATOM      6  C   UNL     1       3.571   9.931   1.207  0.00  0.00    +0.000 A 
ATOM      7  H   UNL     1       4.724  12.651  -0.466  0.00  0.00    +0.000 HD
ATOM      8  H   UNL     1       6.558   8.780   0.081  0.00  0.00    +0.000 HD
ATOM      9  H   UNL     1       2.778  11.902   0.854  0.00  0.00    +0.000 HD
ATOM     10  H   UNL     1       4.608   8.051   1.395  0.00  0.00    +0.000 HD
ATOM     11  H   UNL     1       2.714   9.604   1.787  0.00  0.00    +0.000 HD
ENDROOT
BRANCH   1  13
ATOM     12  O   UNL     1       7.766  10.426  -1.517  0.00  0.00    +0.000 OA
ATOM     13  C   UNL     1       6.925  11.205  -1.062  0.00  0.00    +0.000 C 
ATOM     14  H   UNL     1       7.020  12.290  -1.237  0.00  0.00    +0.000 HD
ENDBRANCH   1  13
TORSDOF 1
ENDMDL
MODEL 9
REMARK VINA RESULT:    -4.242     17.051     17.979
REMARK INTER + INTRA:          -4.504
REMARK INTER:                  -4.494
REMARK INTRA:                  -0.009
REMARK UNBOUND:                -0.014
REMARK  Name = 240
REMARK  1 active torsions:
REMARK  status: ('A' for Active; 'I' for Inactive)
REMARK    1  A    between atoms: C_2  and  C_8
REMARK                            x       y       z     vdW  Elec       q    Type
REMARK                         _______ _______ _______ _____ _____    ______ ____
ROOT
ATOM      1  C   UNL     1     -13.261  -3.137  -3.024  0.00  0.00    +0.000 A 
ATOM      2  C   UNL     1     -13.454  -2.162  -4.003  0.00  0.00    +0.000 A 
ATOM      3  C   UNL     1     -12.991  -4.454  -3.396  0.00  0.00    +0.000 A 
ATOM      4  C   UNL     1     -13.377  -2.503  -5.353  0.00  0.00    +0.000 A 
ATOM      5  C   UNL     1     -12.914  -4.795  -4.746  0.00  0.00    +0.000 A 
ATOM      6  C   UNL     1     -13.107  -3.820  -5.725  0.00  0.00    +0.000 A 
ATOM      7  H   UNL     1     -13.665  -1.131  -3.728  0.00  0.00    +0.000 HD
ATOM      8  H   UNL     1     -12.838  -5.230  -2.651  0.00  0.00    +0.000 HD
ATOM      9  H   UNL     1     -13.527  -1.744  -6.115  0.00  0.00    +0.000 HD
ATOM     10  H   UNL     1     -12.704  -5.821  -5.036  0.00  0.00    +0.000 HD
ATOM     11  H   UNL     1     -13.047  -4.086  -6.775  0.00  0.00    +0.000 HD
ENDROOT
BRANCH   1  13
ATOM     12  O   UNL     1     -14.282  -3.114  -0.889  0.00  0.00    +0.000 OA
ATOM     13  C   UNL     1     -13.342  -2.780  -1.616  0.00  0.00    +0.000 C 
ATOM     14  H   UNL     1     -12.508  -2.184  -1.208  0.00  0.00    +0.000 HD
ENDBRANCH   1  13
TORSDOF 1
ENDMDL
MODEL 10
REMARK VINA RESULT:    -4.080     26.167     27.005
REMARK INTER + INTRA:          -4.332
REMARK INTER:                  -4.318
REMARK INTRA:                  -0.014
REMARK UNBOUND:                -0.014
REMARK  Name = 240
REMARK  1 active torsions:
REMARK  status: ('A' for Active; 'I' for Inactive)
REMARK    1  A    between atoms: C_2  and  C_8
REMARK                            x       y       z     vdW  Elec       q    Type
REMARK                         _______ _______ _______ _____ _____    ______ ____
ROOT
ATOM      1  C   UNL     1     -20.797  -2.137   6.040  0.00  0.00    +0.000 A 
ATOM      2  C   UNL     1     -21.084  -1.323   4.944  0.00  0.00    +0.000 A 
ATOM      3  C   UNL     1     -20.546  -3.496   5.853  0.00  0.00    +0.000 A 
ATOM      4  C   UNL     1     -21.118  -1.869   3.660  0.00  0.00    +0.000 A 
ATOM      5  C   UNL     1     -20.580  -4.041   4.569  0.00  0.00    +0.000 A 
ATOM      6  C   UNL     1     -20.866  -3.227   3.473  0.00  0.00    +0.000 A 
ATOM      7  H   UNL     1     -21.282  -0.262   5.074  0.00  0.00    +0.000 HD
ATOM      8  H   UNL     1     -20.321  -4.149   6.692  0.00  0.00    +0.000 HD
ATOM      9  H   UNL     1     -21.341  -1.235   2.807  0.00  0.00    +0.000 HD
ATOM     10  H   UNL     1     -20.384  -5.100   4.423  0.00  0.00    +0.000 HD
ATOM     11  H   UNL     1     -20.893  -3.652   2.474  0.00  0.00    +0.000 HD
ENDROOT
BRANCH   1  13
ATOM     12  O   UNL     1     -21.082  -0.402   7.624  0.00  0.00    +0.000 OA
ATOM     13  C   UNL     1     -20.762  -1.568   7.379  0.00  0.00    +0.000 C 
ATOM     14  H   UNL     1     -20.429  -2.236   8.191  0.00  0.00    +0.000 HD
ENDBRANCH   1  13
TORSDOF 1
ENDMDL
