MODEL 1
REMARK VINA RESULT:    -3.142      0.000      0.000
REMARK INTER + INTRA:          -3.621
REMARK INTER:                  -3.588
REMARK INTRA:                  -0.033
REMARK UNBOUND:                -0.020
REMARK  Name = 261
REMARK  3 active torsions:
REMARK  status: ('A' for Active; 'I' for Inactive)
REMARK    1  A    between atoms: C_2  and  C_3
REMARK    2  A    between atoms: C_2  and  C_4
REMARK    3  A    between atoms: C_3  and  C_5
REMARK                            x       y       z     vdW  Elec       q    Type
REMARK                         _______ _______ _______ _____ _____    ______ ____
ROOT
ATOM      1  C   UNL     1      -3.237   7.752  -8.911  0.00  0.00    +0.000 C 
ATOM      2  H   UNL     1      -2.841   7.248  -8.022  0.00  0.00    +0.000 HD
ATOM      3  H   UNL     1      -4.327   7.792  -8.793  0.00  0.00    +0.000 HD
ENDROOT
BRANCH   1   4
ATOM      4  C   UNL     1      -2.897   6.936 -10.147  0.00  0.00    +0.000 C 
ATOM      5  H   UNL     1      -3.736   6.297 -10.438  0.00  0.00    +0.000 HD
ATOM      6  H   UNL     1      -2.667   7.598 -10.988  0.00  0.00    +0.000 HD
ATOM      7  H   UNL     1      -2.025   6.299  -9.969  0.00  0.00    +0.000 HD
ENDBRANCH   1   4
BRANCH   1   8
ATOM      8  C   UNL     1      -2.671   9.165  -9.002  0.00  0.00    +0.000 C 
ATOM      9  H   UNL     1      -3.468   9.907  -8.889  0.00  0.00    +0.000 HD
ATOM     10  H   UNL     1      -1.934   9.332  -8.208  0.00  0.00    +0.000 HD
BRANCH   8  12
ATOM     11  O   UNL     1      -1.009  10.163 -10.463  0.00  0.00    +0.000 OA
ATOM     12  C   UNL     1      -1.982   9.431 -10.318  0.00  0.00    +0.000 C 
ATOM     13  H   UNL     1      -2.416   8.901 -11.184  0.00  0.00    +0.000 HD
ENDBRANCH   8  12
ENDBRANCH   1   8
TORSDOF 3
ENDMDL
MODEL 2
REMARK VINA RESULT:    -3.064     11.726     12.300
REMARK INTER + INTRA:          -3.532
REMARK INTER:                  -3.530
REMARK INTRA:                  -0.002
REMARK UNBOUND:                -0.020
REMARK  Name = 261
REMARK  3 active torsions:
REMARK  status: ('A' for Active; 'I' for Inactive)
REMARK    1  A    between atoms: C_2  and  C_3
REMARK    2  A    between atoms: C_2  and  C_4
REMARK    3  A    between atoms: C_3  and  C_5
REMARK                            x       y       z     vdW  Elec       q    Type
REMARK                         _______ _______ _______ _____ _____    ______ ____
ROOT
ATOM      1  C   UNL     1       4.159  10.872  -0.689  0.00  0.00    +0.000 C 
ATOM      2  H   UNL     1       5.033  11.517  -0.836  0.00  0.00    +0.000 HD
ATOM      3  H   UNL     1       4.505   9.838  -0.811  0.00  0.00    +0.000 HD
ENDROOT
BRANCH   1   4
ATOM      4  C   UNL     1       3.121  11.180  -1.755  0.00  0.00    +0.000 C 
ATOM      5  H   UNL     1       2.136  10.800  -1.465  0.00  0.00    +0.000 HD
ATOM      6  H   UNL     1       3.037  12.262  -1.900  0.00  0.00    +0.000 HD
ATOM      7  H   UNL     1       3.396  10.729  -2.714  0.00  0.00    +0.000 HD
ENDBRANCH   1   4
BRANCH   1   8
ATOM      8  C   UNL     1       3.596  11.071   0.714  0.00  0.00    +0.000 C 
ATOM      9  H   UNL     1       4.168  11.833   1.253  0.00  0.00    +0.000 HD
ATOM     10  H   UNL     1       2.552  11.402   0.662  0.00  0.00    +0.000 HD
BRANCH   8  12
ATOM     11  O   UNL     1       3.179   9.701   2.673  0.00  0.00    +0.000 OA
ATOM     12  C   UNL     1       3.628   9.807   1.537  0.00  0.00    +0.000 C 
ATOM     13  H   UNL     1       4.092   8.939   1.037  0.00  0.00    +0.000 HD
ENDBRANCH   8  12
ENDBRANCH   1   8
TORSDOF 3
ENDMDL
MODEL 3
REMARK VINA RESULT:    -3.019      1.886      2.812
REMARK INTER + INTRA:          -3.480
REMARK INTER:                  -3.445
REMARK INTRA:                  -0.036
REMARK UNBOUND:                -0.020
REMARK  Name = 261
REMARK  3 active torsions:
REMARK  status: ('A' for Active; 'I' for Inactive)
REMARK    1  A    between atoms: C_2  and  C_3
REMARK    2  A    between atoms: C_2  and  C_4
REMARK    3  A    between atoms: C_3  and  C_5
REMARK                            x       y       z     vdW  Elec       q    Type
REMARK                         _______ _______ _______ _____ _____    ______ ____
ROOT
ATOM      1  C   UNL     1      -2.750   9.745  -9.884  0.00  0.00    +0.000 C 
ATOM      2  H   UNL     1      -3.380   9.399 -10.713  0.00  0.00    +0.000 HD
ATOM      3  H   UNL     1      -3.159  10.708  -9.557  0.00  0.00    +0.000 HD
ENDROOT
BRANCH   1   4
ATOM      4  C   UNL     1      -1.329   9.947 -10.383  0.00  0.00    +0.000 C 
ATOM      5  H   UNL     1      -1.177  10.975 -10.728  0.00  0.00    +0.000 HD
ATOM      6  H   UNL     1      -0.613   9.751  -9.578  0.00  0.00    +0.000 HD
ATOM      7  H   UNL     1      -1.103   9.269 -11.212  0.00  0.00    +0.000 HD
ENDBRANCH   1   4
BRANCH   1   8
ATOM      8  C   UNL     1      -2.802   8.740  -8.739  0.00  0.00    +0.000 C 
ATOM      9  H   UNL     1      -1.809   8.606  -8.299  0.00  0.00    +0.000 HD
ATOM     10  H   UNL     1      -3.479   9.094  -7.952  0.00  0.00    +0.000 HD
BRANCH   8  12
ATOM     11  O   UNL     1      -2.756   6.688 -10.033  0.00  0.00    +0.000 OA
ATOM     12  C   UNL     1      -3.294   7.383  -9.179  0.00  0.00    +0.000 C 
ATOM     13  H   UNL     1      -4.203   7.029  -8.664  0.00  0.00    +0.000 HD
ENDBRANCH   8  12
ENDBRANCH   1   8
TORSDOF 3
ENDMDL
MODEL 4
REMARK VINA RESULT:    -2.998     11.698     12.259
REMARK INTER + INTRA:          -3.455
REMARK INTER:                  -3.446
REMARK INTRA:                  -0.010
REMARK UNBOUND:                -0.020
REMARK  Name = 261
REMARK  3 active torsions:
REMARK  status: ('A' for Active; 'I' for Inactive)
REMARK    1  A    between atoms: C_2  and  C_3
REMARK    2  A    between atoms: C_2  and  C_4
REMARK    3  A    between atoms: C_3  and  C_5
REMARK                            x       y       z     vdW  Elec       q    Type
REMARK                         _______ _______ _______ _____ _____    ______ ____
ROOT
ATOM      1  C   UNL     1       5.449  10.576  -0.426  0.00  0.00    +0.000 C 
ATOM      2  H   UNL     1       5.542  10.919   0.612  0.00  0.00    +0.000 HD
ATOM      3  H   UNL     1       5.486   9.480  -0.401  0.00  0.00    +0.000 HD
ENDROOT
BRANCH   1   4
ATOM      4  C   UNL     1       6.624  11.098  -1.235  0.00  0.00    +0.000 C 
ATOM      5  H   UNL     1       7.252  10.276  -1.592  0.00  0.00    +0.000 HD
ATOM      6  H   UNL     1       6.266  11.655  -2.108  0.00  0.00    +0.000 HD
ATOM      7  H   UNL     1       7.246  11.771  -0.636  0.00  0.00    +0.000 HD
ENDBRANCH   1   4
BRANCH   1   8
ATOM      8  C   UNL     1       4.119  11.041  -1.009  0.00  0.00    +0.000 C 
ATOM      9  H   UNL     1       4.284  11.684  -1.879  0.00  0.00    +0.000 HD
ATOM     10  H   UNL     1       3.521  10.179  -1.329  0.00  0.00    +0.000 HD
BRANCH   8  12
ATOM     11  O   UNL     1       3.216  11.567   1.182  0.00  0.00    +0.000 OA
ATOM     12  C   UNL     1       3.290  11.819  -0.015  0.00  0.00    +0.000 C 
ATOM     13  H   UNL     1       2.733  12.671  -0.442  0.00  0.00    +0.000 HD
ENDBRANCH   8  12
ENDBRANCH   1   8
TORSDOF 3
ENDMDL
MODEL 5
REMARK VINA RESULT:    -2.878     12.080     12.566
REMARK INTER + INTRA:          -3.318
REMARK INTER:                  -3.296
REMARK INTRA:                  -0.022
REMARK UNBOUND:                -0.020
REMARK  Name = 261
REMARK  3 active torsions:
REMARK  status: ('A' for Active; 'I' for Inactive)
REMARK    1  A    between atoms: C_2  and  C_3
REMARK    2  A    between atoms: C_2  and  C_4
REMARK    3  A    between atoms: C_3  and  C_5
REMARK                            x       y       z     vdW  Elec       q    Type
REMARK                         _______ _______ _______ _____ _____    ______ ____
ROOT
ATOM      1  C   UNL     1       4.324   9.248   1.193  0.00  0.00    +0.000 C 
ATOM      2  H   UNL     1       4.695   8.291   0.808  0.00  0.00    +0.000 HD
ATOM      3  H   UNL     1       5.183   9.761   1.643  0.00  0.00    +0.000 HD
ENDROOT
BRANCH   1   4
ATOM      4  C   UNL     1       3.279   8.987   2.265  0.00  0.00    +0.000 C 
ATOM      5  H   UNL     1       2.620   8.162   1.978  0.00  0.00    +0.000 HD
ATOM      6  H   UNL     1       3.764   8.721   3.210  0.00  0.00    +0.000 HD
ATOM      7  H   UNL     1       2.664   9.876   2.438  0.00  0.00    +0.000 HD
ENDBRANCH   1   4
BRANCH   1   8
ATOM      8  C   UNL     1       3.757  10.083   0.051  0.00  0.00    +0.000 C 
ATOM      9  H   UNL     1       4.414  10.036  -0.823  0.00  0.00    +0.000 HD
ATOM     10  H   UNL     1       2.770   9.707  -0.243  0.00  0.00    +0.000 HD
BRANCH   8  12
ATOM     11  O   UNL     1       4.514  12.333   0.557  0.00  0.00    +0.000 OA
ATOM     12  C   UNL     1       3.592  11.537   0.422  0.00  0.00    +0.000 C 
ATOM     13  H   UNL     1       2.547  11.864   0.565  0.00  0.00    +0.000 HD
ENDBRANCH   8  12
ENDBRANCH   1   8
TORSDOF 3
ENDMDL
MODEL 6
REMARK VINA RESULT:    -2.811     16.429     16.861
REMARK INTER + INTRA:          -3.242
REMARK INTER:                  -3.235
REMARK INTRA:                  -0.007
REMARK UNBOUND:                -0.020
REMARK  Name = 261
REMARK  3 active torsions:
REMARK  status: ('A' for Active; 'I' for Inactive)
REMARK    1  A    between atoms: C_2  and  C_3
REMARK    2  A    between atoms: C_2  and  C_4
REMARK    3  A    between atoms: C_3  and  C_5
REMARK                            x       y       z     vdW  Elec       q    Type
REMARK                         _______ _______ _______ _____ _____    ______ ____
ROOT
ATOM      1  C   UNL     1      -7.656  12.746   4.680  0.00  0.00    +0.000 C 
ATOM      2  H   UNL     1      -7.684  12.917   3.597  0.00  0.00    +0.000 HD
ATOM      3  H   UNL     1      -8.521  13.271   5.105  0.00  0.00    +0.000 HD
ENDROOT
BRANCH   1   4
ATOM      4  C   UNL     1      -6.380  13.341   5.250  0.00  0.00    +0.000 C 
ATOM      5  H   UNL     1      -5.848  12.610   5.867  0.00  0.00    +0.000 HD
ATOM      6  H   UNL     1      -5.711  13.652   4.441  0.00  0.00    +0.000 HD
ATOM      7  H   UNL     1      -6.597  14.219   5.867  0.00  0.00    +0.000 HD
ENDBRANCH   1   4
BRANCH   1   8
ATOM      8  C   UNL     1      -7.757  11.253   4.973  0.00  0.00    +0.000 C 
ATOM      9  H   UNL     1      -8.051  10.704   4.073  0.00  0.00    +0.000 HD
ATOM     10  H   UNL     1      -6.789  10.865   5.309  0.00  0.00    +0.000 HD
BRANCH   8  12
ATOM     11  O   UNL     1      -8.617  10.094   6.924  0.00  0.00    +0.000 OA
ATOM     12  C   UNL     1      -8.766  10.941   6.051  0.00  0.00    +0.000 C 
ATOM     13  H   UNL     1      -9.688  11.547   6.014  0.00  0.00    +0.000 HD
ENDBRANCH   8  12
ENDBRANCH   1   8
TORSDOF 3
ENDMDL
MODEL 7
REMARK VINA RESULT:    -2.757     25.862     26.697
REMARK INTER + INTRA:          -3.179
REMARK INTER:                  -3.149
REMARK INTRA:                  -0.031
REMARK UNBOUND:                -0.020
REMARK  Name = 261
REMARK  3 active torsions:
REMARK  status: ('A' for Active; 'I' for Inactive)
REMARK    1  A    between atoms: C_2  and  C_3
REMARK    2  A    between atoms: C_2  and  C_4
REMARK    3  A    between atoms: C_3  and  C_5
REMARK                            x       y       z     vdW  Elec       q    Type
REMARK                         _______ _______ _______ _____ _____    ______ ____
ROOT
ATOM      1  C   UNL     1     -20.295  -1.148   7.055  0.00  0.00    +0.000 C 
ATOM      2  H   UNL     1     -20.714  -0.539   7.865  0.00  0.00    +0.000 HD
ATOM      3  H   UNL     1     -19.227  -1.270   7.271  0.00  0.00    +0.000 HD
ENDROOT
BRANCH   1   4
ATOM      4  C   UNL     1     -20.458  -0.411   5.736  0.00  0.00    +0.000 C 
ATOM      5  H   UNL     1     -19.929   0.547   5.754  0.00  0.00    +0.000 HD
ATOM      6  H   UNL     1     -20.049  -1.009   4.915  0.00  0.00    +0.000 HD
ATOM      7  H   UNL     1     -21.514  -0.218   5.522  0.00  0.00    +0.000 HD
ENDBRANCH   1   4
BRANCH   1   8
ATOM      8  C   UNL     1     -20.980  -2.510   7.023  0.00  0.00    +0.000 C 
ATOM      9  H   UNL     1     -20.584  -3.158   7.811  0.00  0.00    +0.000 HD
ATOM     10  H   UNL     1     -22.059  -2.398   7.182  0.00  0.00    +0.000 HD
BRANCH   8  12
ATOM     11  O   UNL     1     -20.060  -4.193   5.536  0.00  0.00    +0.000 OA
ATOM     12  C   UNL     1     -20.790  -3.223   5.706  0.00  0.00    +0.000 C 
ATOM     13  H   UNL     1     -21.375  -2.811   4.866  0.00  0.00    +0.000 HD
ENDBRANCH   8  12
ENDBRANCH   1   8
TORSDOF 3
ENDMDL
MODEL 8
REMARK VINA RESULT:    -2.663     14.078     14.482
REMARK INTER + INTRA:          -3.072
REMARK INTER:                  -3.040
REMARK INTRA:                  -0.032
REMARK UNBOUND:                -0.020
REMARK  Name = 261
REMARK  3 active torsions:
REMARK  status: ('A' for Active; 'I' for Inactive)
REMARK    1  A    between atoms: C_2  and  C_3
REMARK    2  A    between atoms: C_2  and  C_4
REMARK    3  A    between atoms: C_3  and  C_5
REMARK                            x       y       z     vdW  Elec       q    Type
REMARK                         _______ _______ _______ _____ _____    ______ ____
ROOT
ATOM      1  C   UNL     1       5.963   7.828   3.062  0.00  0.00    +0.000 C 
ATOM      2  H   UNL     1       6.885   7.408   2.643  0.00  0.00    +0.000 HD
ATOM      3  H   UNL     1       6.266   8.543   3.837  0.00  0.00    +0.000 HD
ENDROOT
BRANCH   1   4
ATOM      4  C   UNL     1       5.147   6.715   3.699  0.00  0.00    +0.000 C 
ATOM      5  H   UNL     1       5.722   6.204   4.477  0.00  0.00    +0.000 HD
ATOM      6  H   UNL     1       4.242   7.125   4.159  0.00  0.00    +0.000 HD
ATOM      7  H   UNL     1       4.843   5.975   2.952  0.00  0.00    +0.000 HD
ENDBRANCH   1   4
BRANCH   1   8
ATOM      8  C   UNL     1       5.176   8.544   1.971  0.00  0.00    +0.000 C 
ATOM      9  H   UNL     1       5.588   9.543   1.791  0.00  0.00    +0.000 HD
ATOM     10  H   UNL     1       5.226   7.980   1.032  0.00  0.00    +0.000 HD
BRANCH   8  12
ATOM     11  O   UNL     1       3.185   9.770   2.625  0.00  0.00    +0.000 OA
ATOM     12  C   UNL     1       3.716   8.708   2.321  0.00  0.00    +0.000 C 
ATOM     13  H   UNL     1       3.122   7.779   2.280  0.00  0.00    +0.000 HD
ENDBRANCH   8  12
ENDBRANCH   1   8
TORSDOF 3
ENDMDL
MODEL 9
REMARK VINA RESULT:    -2.619      1.105      1.616
REMARK INTER + INTRA:          -3.022
REMARK INTER:                  -2.994
REMARK INTRA:                  -0.028
REMARK UNBOUND:                -0.020
REMARK  Name = 261
REMARK  3 active torsions:
REMARK  status: ('A' for Active; 'I' for Inactive)
REMARK    1  A    between atoms: C_2  and  C_3
REMARK    2  A    between atoms: C_2  and  C_4
REMARK    3  A    between atoms: C_3  and  C_5
REMARK                            x       y       z     vdW  Elec       q    Type
REMARK                         _______ _______ _______ _____ _____    ______ ____
ROOT
ATOM      1  C   UNL     1      -2.552   6.812 -10.589  0.00  0.00    +0.000 C 
ATOM      2  H   UNL     1      -2.485   5.959 -11.275  0.00  0.00    +0.000 HD
ATOM      3  H   UNL     1      -1.877   6.598  -9.751  0.00  0.00    +0.000 HD
ENDROOT
BRANCH   1   4
ATOM      4  C   UNL     1      -3.975   6.927 -10.068  0.00  0.00    +0.000 C 
ATOM      5  H   UNL     1      -4.692   6.974 -10.893  0.00  0.00    +0.000 HD
ATOM      6  H   UNL     1      -4.225   6.058  -9.451  0.00  0.00    +0.000 HD
ATOM      7  H   UNL     1      -4.097   7.825  -9.454  0.00  0.00    +0.000 HD
ENDBRANCH   1   4
BRANCH   1   8
ATOM      8  C   UNL     1      -2.113   8.087 -11.300  0.00  0.00    +0.000 C 
ATOM      9  H   UNL     1      -1.061   8.018 -11.598  0.00  0.00    +0.000 HD
ATOM     10  H   UNL     1      -2.713   8.246 -12.203  0.00  0.00    +0.000 HD
BRANCH   8  12
ATOM     11  O   UNL     1      -1.386   9.773  -9.713  0.00  0.00    +0.000 OA
ATOM     12  C   UNL     1      -2.264   9.315 -10.436  0.00  0.00    +0.000 C 
ATOM     13  H   UNL     1      -3.250   9.806 -10.496  0.00  0.00    +0.000 HD
ENDBRANCH   8  12
ENDBRANCH   1   8
TORSDOF 3
ENDMDL
MODEL 10
REMARK VINA RESULT:    -2.617     19.457     19.651
REMARK INTER + INTRA:          -3.019
REMARK INTER:                  -2.999
REMARK INTRA:                  -0.020
REMARK UNBOUND:                -0.020
REMARK  Name = 261
REMARK  3 active torsions:
REMARK  status: ('A' for Active; 'I' for Inactive)
REMARK    1  A    between atoms: C_2  and  C_3
REMARK    2  A    between atoms: C_2  and  C_4
REMARK    3  A    between atoms: C_3  and  C_5
REMARK                            x       y       z     vdW  Elec       q    Type
REMARK                         _______ _______ _______ _____ _____    ______ ____
ROOT
ATOM      1  C   UNL     1      14.404   6.400  -0.538  0.00  0.00    +0.000 C 
ATOM      2  H   UNL     1      14.120   7.417  -0.833  0.00  0.00    +0.000 HD
ATOM      3  H   UNL     1      13.546   5.755  -0.761  0.00  0.00    +0.000 HD
ENDROOT
BRANCH   1   4
ATOM      4  C   UNL     1      14.680   6.367   0.955  0.00  0.00    +0.000 C 
ATOM      5  H   UNL     1      14.395   7.312   1.428  0.00  0.00    +0.000 HD
ATOM      6  H   UNL     1      14.107   5.564   1.430  0.00  0.00    +0.000 HD
ATOM      7  H   UNL     1      15.742   6.189   1.155  0.00  0.00    +0.000 HD
ENDBRANCH   1   4
BRANCH   1   8
ATOM      8  C   UNL     1      15.619   5.947  -1.341  0.00  0.00    +0.000 C 
ATOM      9  H   UNL     1      16.043   6.785  -1.903  0.00  0.00    +0.000 HD
ATOM     10  H   UNL     1      16.394   5.557  -0.672  0.00  0.00    +0.000 HD
BRANCH   8  12
ATOM     11  O   UNL     1      14.180   4.344  -2.461  0.00  0.00    +0.000 OA
ATOM     12  C   UNL     1      15.286   4.855  -2.330  0.00  0.00    +0.000 C 
ATOM     13  H   UNL     1      16.130   4.530  -2.963  0.00  0.00    +0.000 HD
ENDBRANCH   8  12
ENDBRANCH   1   8
TORSDOF 3
ENDMDL
