MODEL 1
REMARK VINA RESULT:    -3.459      0.000      0.000
REMARK INTER + INTRA:          -4.134
REMARK INTER:                  -4.113
REMARK INTRA:                  -0.020
REMARK UNBOUND:                -0.068
REMARK  Name = 264
REMARK  4 active torsions:
REMARK  status: ('A' for Active; 'I' for Inactive)
REMARK    1  A    between atoms: O_1  and  C_6
REMARK    2  A    between atoms: C_3  and  C_4
REMARK    3  A    between atoms: C_3  and  C_5
REMARK    4  A    between atoms: C_4  and  C_6
REMARK                            x       y       z     vdW  Elec       q    Type
REMARK                         _______ _______ _______ _____ _____    ______ ____
ROOT
ATOM      1  C   UNL     1     -20.681  -0.973   5.638  0.00  0.00    +0.000 C 
ATOM      2  H   UNL     1     -21.764  -1.147   5.629  0.00  0.00    +0.000 HD
ATOM      3  H   UNL     1     -20.224  -1.819   5.111  0.00  0.00    +0.000 HD
ENDROOT
BRANCH   1   4
ATOM      4  C   UNL     1     -20.379   0.305   4.868  0.00  0.00    +0.000 C 
ATOM      5  H   UNL     1     -19.467   0.780   5.243  0.00  0.00    +0.000 HD
ATOM      6  H   UNL     1     -21.202   1.020   4.960  0.00  0.00    +0.000 HD
ATOM      7  H   UNL     1     -20.237   0.083   3.805  0.00  0.00    +0.000 HD
ENDBRANCH   1   4
BRANCH   1   8
ATOM      8  C   UNL     1     -20.178  -0.928   7.076  0.00  0.00    +0.000 C 
ATOM      9  H   UNL     1     -19.416  -1.699   7.231  0.00  0.00    +0.000 HD
ATOM     10  H   UNL     1     -19.738   0.054   7.282  0.00  0.00    +0.000 HD
BRANCH   8  12
ATOM     11  O   UNL     1     -21.753  -2.268   8.324  0.00  0.00    +0.000 OA
ATOM     12  C   UNL     1     -21.291  -1.163   8.067  0.00  0.00    +0.000 C 
BRANCH  12  13
ATOM     13  O   UNL     1     -21.713  -0.022   8.667  0.00  0.00    +0.000 OA
ATOM     14  H   UNL     1     -22.681  -0.029   8.826  0.00  0.00    +0.000 HD
ENDBRANCH  12  13
ENDBRANCH   8  12
ENDBRANCH   1   8
TORSDOF 4
ENDMDL
MODEL 2
REMARK VINA RESULT:    -3.385     28.714     29.498
REMARK INTER + INTRA:          -4.047
REMARK INTER:                  -4.036
REMARK INTRA:                  -0.011
REMARK UNBOUND:                -0.068
REMARK  Name = 264
REMARK  4 active torsions:
REMARK  status: ('A' for Active; 'I' for Inactive)
REMARK    1  A    between atoms: O_1  and  C_6
REMARK    2  A    between atoms: C_3  and  C_4
REMARK    3  A    between atoms: C_3  and  C_5
REMARK    4  A    between atoms: C_4  and  C_6
REMARK                            x       y       z     vdW  Elec       q    Type
REMARK                         _______ _______ _______ _____ _____    ______ ____
ROOT
ATOM      1  C   UNL     1       5.758  10.800  -0.980  0.00  0.00    +0.000 C 
ATOM      2  H   UNL     1       5.220  11.009  -1.912  0.00  0.00    +0.000 HD
ATOM      3  H   UNL     1       5.540   9.757  -0.721  0.00  0.00    +0.000 HD
ENDROOT
BRANCH   1   4
ATOM      4  C   UNL     1       7.253  10.939  -1.230  0.00  0.00    +0.000 C 
ATOM      5  H   UNL     1       7.456  11.120  -2.290  0.00  0.00    +0.000 HD
ATOM      6  H   UNL     1       7.786  10.032  -0.929  0.00  0.00    +0.000 HD
ATOM      7  H   UNL     1       7.658  11.779  -0.657  0.00  0.00    +0.000 HD
ENDBRANCH   1   4
BRANCH   1   8
ATOM      8  C   UNL     1       5.256  11.722   0.124  0.00  0.00    +0.000 C 
ATOM      9  H   UNL     1       5.649  11.396   1.093  0.00  0.00    +0.000 HD
ATOM     10  H   UNL     1       5.592  12.747  -0.070  0.00  0.00    +0.000 HD
BRANCH   8  12
ATOM     11  O   UNL     1       3.125  11.581   1.252  0.00  0.00    +0.000 OA
ATOM     12  C   UNL     1       3.750  11.728   0.209  0.00  0.00    +0.000 C 
BRANCH  12  13
ATOM     13  O   UNL     1       3.155  11.939  -0.991  0.00  0.00    +0.000 OA
ATOM     14  H   UNL     1       3.649  12.588  -1.536  0.00  0.00    +0.000 HD
ENDBRANCH  12  13
ENDBRANCH   8  12
ENDBRANCH   1   8
TORSDOF 4
ENDMDL
MODEL 3
REMARK VINA RESULT:    -3.356     11.787     12.582
REMARK INTER + INTRA:          -4.012
REMARK INTER:                  -4.004
REMARK INTRA:                  -0.008
REMARK UNBOUND:                -0.068
REMARK  Name = 264
REMARK  4 active torsions:
REMARK  status: ('A' for Active; 'I' for Inactive)
REMARK    1  A    between atoms: O_1  and  C_6
REMARK    2  A    between atoms: C_3  and  C_4
REMARK    3  A    between atoms: C_3  and  C_5
REMARK    4  A    between atoms: C_4  and  C_6
REMARK                            x       y       z     vdW  Elec       q    Type
REMARK                         _______ _______ _______ _____ _____    ______ ____
ROOT
ATOM      1  C   UNL     1     -13.247  -2.282  -4.144  0.00  0.00    +0.000 C 
ATOM      2  H   UNL     1     -14.234  -2.711  -4.355  0.00  0.00    +0.000 HD
ATOM      3  H   UNL     1     -12.509  -3.048  -4.411  0.00  0.00    +0.000 HD
ENDROOT
BRANCH   1   4
ATOM      4  C   UNL     1     -13.035  -1.067  -5.037  0.00  0.00    +0.000 C 
ATOM      5  H   UNL     1     -12.132  -1.182  -5.644  0.00  0.00    +0.000 HD
ATOM      6  H   UNL     1     -12.934  -0.156  -4.438  0.00  0.00    +0.000 HD
ATOM      7  H   UNL     1     -13.887  -0.939  -5.712  0.00  0.00    +0.000 HD
ENDBRANCH   1   4
BRANCH   1   8
ATOM      8  C   UNL     1     -13.135  -1.951  -2.661  0.00  0.00    +0.000 C 
ATOM      9  H   UNL     1     -12.104  -1.674  -2.415  0.00  0.00    +0.000 HD
ATOM     10  H   UNL     1     -13.797  -1.113  -2.419  0.00  0.00    +0.000 HD
BRANCH   8  12
ATOM     11  O   UNL     1     -13.595  -4.277  -2.200  0.00  0.00    +0.000 OA
ATOM     12  C   UNL     1     -13.522  -3.123  -1.794  0.00  0.00    +0.000 C 
BRANCH  12  13
ATOM     13  O   UNL     1     -13.759  -2.772  -0.506  0.00  0.00    +0.000 OA
ATOM     14  H   UNL     1     -14.418  -3.361  -0.080  0.00  0.00    +0.000 HD
ENDBRANCH  12  13
ENDBRANCH   8  12
ENDBRANCH   1   8
TORSDOF 4
ENDMDL
MODEL 4
REMARK VINA RESULT:    -3.339     25.590     26.276
REMARK INTER + INTRA:          -3.992
REMARK INTER:                  -3.955
REMARK INTRA:                  -0.037
REMARK UNBOUND:                -0.068
REMARK  Name = 264
REMARK  4 active torsions:
REMARK  status: ('A' for Active; 'I' for Inactive)
REMARK    1  A    between atoms: O_1  and  C_6
REMARK    2  A    between atoms: C_3  and  C_4
REMARK    3  A    between atoms: C_3  and  C_5
REMARK    4  A    between atoms: C_4  and  C_6
REMARK                            x       y       z     vdW  Elec       q    Type
REMARK                         _______ _______ _______ _____ _____    ______ ____
ROOT
ATOM      1  C   UNL     1      -2.985   6.835 -10.476  0.00  0.00    +0.000 C 
ATOM      2  H   UNL     1      -2.675   5.789 -10.361  0.00  0.00    +0.000 HD
ATOM      3  H   UNL     1      -2.177   7.343 -11.016  0.00  0.00    +0.000 HD
ENDROOT
BRANCH   1   4
ATOM      4  C   UNL     1      -4.249   6.884 -11.324  0.00  0.00    +0.000 C 
ATOM      5  H   UNL     1      -4.490   7.915 -11.604  0.00  0.00    +0.000 HD
ATOM      6  H   UNL     1      -5.101   6.468 -10.779  0.00  0.00    +0.000 HD
ATOM      7  H   UNL     1      -4.113   6.304 -12.242  0.00  0.00    +0.000 HD
ENDBRANCH   1   4
BRANCH   1   8
ATOM      8  C   UNL     1      -3.170   7.472  -9.104  0.00  0.00    +0.000 C 
ATOM      9  H   UNL     1      -4.234   7.504  -8.846  0.00  0.00    +0.000 HD
ATOM     10  H   UNL     1      -2.638   6.883  -8.349  0.00  0.00    +0.000 HD
BRANCH   8  12
ATOM     11  O   UNL     1      -1.766   9.304  -9.815  0.00  0.00    +0.000 OA
ATOM     12  C   UNL     1      -2.637   8.882  -9.065  0.00  0.00    +0.000 C 
BRANCH  12  13
ATOM     13  O   UNL     1      -3.243   9.649  -8.125  0.00  0.00    +0.000 OA
ATOM     14  H   UNL     1      -3.538   9.120  -7.354  0.00  0.00    +0.000 HD
ENDBRANCH  12  13
ENDBRANCH   8  12
ENDBRANCH   1   8
TORSDOF 4
ENDMDL
MODEL 5
REMARK VINA RESULT:    -3.324     26.360     27.173
REMARK INTER + INTRA:          -3.974
REMARK INTER:                  -3.953
REMARK INTRA:                  -0.021
REMARK UNBOUND:                -0.068
REMARK  Name = 264
REMARK  4 active torsions:
REMARK  status: ('A' for Active; 'I' for Inactive)
REMARK    1  A    between atoms: O_1  and  C_6
REMARK    2  A    between atoms: C_3  and  C_4
REMARK    3  A    between atoms: C_3  and  C_5
REMARK    4  A    between atoms: C_4  and  C_6
REMARK                            x       y       z     vdW  Elec       q    Type
REMARK                         _______ _______ _______ _____ _____    ______ ____
ROOT
ATOM      1  C   UNL     1      -3.325   7.746  -9.178  0.00  0.00    +0.000 C 
ATOM      2  H   UNL     1      -4.333   8.051  -9.486  0.00  0.00    +0.000 HD
ATOM      3  H   UNL     1      -3.443   7.161  -8.258  0.00  0.00    +0.000 HD
ENDROOT
BRANCH   1   4
ATOM      4  C   UNL     1      -2.730   6.849 -10.256  0.00  0.00    +0.000 C 
ATOM      5  H   UNL     1      -1.885   6.276  -9.863  0.00  0.00    +0.000 HD
ATOM      6  H   UNL     1      -2.379   7.442 -11.106  0.00  0.00    +0.000 HD
ATOM      7  H   UNL     1      -3.483   6.143 -10.620  0.00  0.00    +0.000 HD
ENDBRANCH   1   4
BRANCH   1   8
ATOM      8  C   UNL     1      -2.474   8.979  -8.901  0.00  0.00    +0.000 C 
ATOM      9  H   UNL     1      -2.981   9.630  -8.181  0.00  0.00    +0.000 HD
ATOM     10  H   UNL     1      -1.507   8.675  -8.487  0.00  0.00    +0.000 HD
BRANCH   8  12
ATOM     11  O   UNL     1      -3.101  10.136 -10.927  0.00  0.00    +0.000 OA
ATOM     12  C   UNL     1      -2.220   9.778 -10.155  0.00  0.00    +0.000 C 
BRANCH  12  13
ATOM     13  O   UNL     1      -0.910  10.084 -10.329  0.00  0.00    +0.000 OA
ATOM     14  H   UNL     1      -0.686  10.212 -11.276  0.00  0.00    +0.000 HD
ENDBRANCH  12  13
ENDBRANCH   8  12
ENDBRANCH   1   8
TORSDOF 4
ENDMDL
MODEL 6
REMARK VINA RESULT:    -3.255     18.461     19.016
REMARK INTER + INTRA:          -3.894
REMARK INTER:                  -3.928
REMARK INTRA:                   0.034
REMARK UNBOUND:                -0.068
REMARK  Name = 264
REMARK  4 active torsions:
REMARK  status: ('A' for Active; 'I' for Inactive)
REMARK    1  A    between atoms: O_1  and  C_6
REMARK    2  A    between atoms: C_3  and  C_4
REMARK    3  A    between atoms: C_3  and  C_5
REMARK    4  A    between atoms: C_4  and  C_6
REMARK                            x       y       z     vdW  Elec       q    Type
REMARK                         _______ _______ _______ _____ _____    ______ ____
ROOT
ATOM      1  C   UNL     1     -10.420   8.977  19.066  0.00  0.00    +0.000 C 
ATOM      2  H   UNL     1     -11.143   8.576  18.345  0.00  0.00    +0.000 HD
ATOM      3  H   UNL     1     -10.990   9.601  19.765  0.00  0.00    +0.000 HD
ENDROOT
BRANCH   1   4
ATOM      4  C   UNL     1      -9.799   7.821  19.837  0.00  0.00    +0.000 C 
ATOM      5  H   UNL     1     -10.523   7.378  20.527  0.00  0.00    +0.000 HD
ATOM      6  H   UNL     1      -8.934   8.158  20.417  0.00  0.00    +0.000 HD
ATOM      7  H   UNL     1      -9.463   7.041  19.146  0.00  0.00    +0.000 HD
ENDBRANCH   1   4
BRANCH   1   8
ATOM      8  C   UNL     1      -9.385   9.827  18.340  0.00  0.00    +0.000 C 
ATOM      9  H   UNL     1      -9.842  10.759  17.992  0.00  0.00    +0.000 HD
ATOM     10  H   UNL     1      -8.561  10.067  19.021  0.00  0.00    +0.000 HD
BRANCH   8  12
ATOM     11  O   UNL     1      -9.327   9.124  16.030  0.00  0.00    +0.000 OA
ATOM     12  C   UNL     1      -8.813   9.112  17.142  0.00  0.00    +0.000 C 
BRANCH  12  13
ATOM     13  O   UNL     1      -7.650   8.471  17.416  0.00  0.00    +0.000 OA
ATOM     14  H   UNL     1      -7.506   7.702  16.823  0.00  0.00    +0.000 HD
ENDBRANCH  12  13
ENDBRANCH   8  12
ENDBRANCH   1   8
TORSDOF 4
ENDMDL
MODEL 7
REMARK VINA RESULT:    -3.247     26.392     27.018
REMARK INTER + INTRA:          -3.885
REMARK INTER:                  -3.826
REMARK INTRA:                  -0.059
REMARK UNBOUND:                -0.068
REMARK  Name = 264
REMARK  4 active torsions:
REMARK  status: ('A' for Active; 'I' for Inactive)
REMARK    1  A    between atoms: O_1  and  C_6
REMARK    2  A    between atoms: C_3  and  C_4
REMARK    3  A    between atoms: C_3  and  C_5
REMARK    4  A    between atoms: C_4  and  C_6
REMARK                            x       y       z     vdW  Elec       q    Type
REMARK                         _______ _______ _______ _____ _____    ______ ____
ROOT
ATOM      1  C   UNL     1      -3.212   7.053  -9.154  0.00  0.00    +0.000 C 
ATOM      2  H   UNL     1      -2.344   6.452  -8.858  0.00  0.00    +0.000 HD
ATOM      3  H   UNL     1      -4.053   6.711  -8.539  0.00  0.00    +0.000 HD
ENDROOT
BRANCH   1   4
ATOM      4  C   UNL     1      -2.933   8.515  -8.832  0.00  0.00    +0.000 C 
ATOM      5  H   UNL     1      -3.682   8.912  -8.141  0.00  0.00    +0.000 HD
ATOM      6  H   UNL     1      -2.948   9.124  -9.742  0.00  0.00    +0.000 HD
ATOM      7  H   UNL     1      -1.948   8.620  -8.367  0.00  0.00    +0.000 HD
ENDBRANCH   1   4
BRANCH   1   8
ATOM      8  C   UNL     1      -3.522   6.822 -10.628  0.00  0.00    +0.000 C 
ATOM      9  H   UNL     1      -3.679   5.754 -10.815  0.00  0.00    +0.000 HD
ATOM     10  H   UNL     1      -4.430   7.369 -10.904  0.00  0.00    +0.000 HD
BRANCH   8  12
ATOM     11  O   UNL     1      -2.484   8.249 -12.277  0.00  0.00    +0.000 OA
ATOM     12  C   UNL     1      -2.399   7.292 -11.517  0.00  0.00    +0.000 C 
BRANCH  12  13
ATOM     13  O   UNL     1      -1.268   6.558 -11.371  0.00  0.00    +0.000 OA
ATOM     14  H   UNL     1      -0.721   6.872 -10.619  0.00  0.00    +0.000 HD
ENDBRANCH  12  13
ENDBRANCH   8  12
ENDBRANCH   1   8
TORSDOF 4
ENDMDL
MODEL 8
REMARK VINA RESULT:    -3.241     18.287     18.638
REMARK INTER + INTRA:          -3.877
REMARK INTER:                  -3.837
REMARK INTRA:                  -0.040
REMARK UNBOUND:                -0.068
REMARK  Name = 264
REMARK  4 active torsions:
REMARK  status: ('A' for Active; 'I' for Inactive)
REMARK    1  A    between atoms: O_1  and  C_6
REMARK    2  A    between atoms: C_3  and  C_4
REMARK    3  A    between atoms: C_3  and  C_5
REMARK    4  A    between atoms: C_4  and  C_6
REMARK                            x       y       z     vdW  Elec       q    Type
REMARK                         _______ _______ _______ _____ _____    ______ ____
ROOT
ATOM      1  C   UNL     1      -9.254   3.485  -5.756  0.00  0.00    +0.000 C 
ATOM      2  H   UNL     1     -10.095   4.127  -6.045  0.00  0.00    +0.000 HD
ATOM      3  H   UNL     1      -9.690   2.581  -5.313  0.00  0.00    +0.000 HD
ENDROOT
BRANCH   1   4
ATOM      4  C   UNL     1      -8.480   3.092  -7.007  0.00  0.00    +0.000 C 
ATOM      5  H   UNL     1      -8.040   3.973  -7.485  0.00  0.00    +0.000 HD
ATOM      6  H   UNL     1      -9.134   2.598  -7.732  0.00  0.00    +0.000 HD
ATOM      7  H   UNL     1      -7.670   2.402  -6.751  0.00  0.00    +0.000 HD
ENDBRANCH   1   4
BRANCH   1   8
ATOM      8  C   UNL     1      -8.388   4.199  -4.726  0.00  0.00    +0.000 C 
ATOM      9  H   UNL     1      -8.729   3.953  -3.714  0.00  0.00    +0.000 HD
ATOM     10  H   UNL     1      -7.346   3.883  -4.837  0.00  0.00    +0.000 HD
BRANCH   8  12
ATOM     11  O   UNL     1      -9.282   6.278  -5.569  0.00  0.00    +0.000 OA
ATOM     12  C   UNL     1      -8.447   5.698  -4.887  0.00  0.00    +0.000 C 
BRANCH  12  13
ATOM     13  O   UNL     1      -7.491   6.343  -4.175  0.00  0.00    +0.000 OA
ATOM     14  H   UNL     1      -7.763   7.255  -3.936  0.00  0.00    +0.000 HD
ENDBRANCH  12  13
ENDBRANCH   8  12
ENDBRANCH   1   8
TORSDOF 4
ENDMDL
MODEL 9
REMARK VINA RESULT:    -3.144     18.353     18.853
REMARK INTER + INTRA:          -3.764
REMARK INTER:                  -3.705
REMARK INTRA:                  -0.059
REMARK UNBOUND:                -0.068
REMARK  Name = 264
REMARK  4 active torsions:
REMARK  status: ('A' for Active; 'I' for Inactive)
REMARK    1  A    between atoms: O_1  and  C_6
REMARK    2  A    between atoms: C_3  and  C_4
REMARK    3  A    between atoms: C_3  and  C_5
REMARK    4  A    between atoms: C_4  and  C_6
REMARK                            x       y       z     vdW  Elec       q    Type
REMARK                         _______ _______ _______ _____ _____    ______ ____
ROOT
ATOM      1  C   UNL     1     -10.298   7.295  -6.343  0.00  0.00    +0.000 C 
ATOM      2  H   UNL     1     -10.848   6.349  -6.269  0.00  0.00    +0.000 HD
ATOM      3  H   UNL     1     -10.501   7.696  -7.343  0.00  0.00    +0.000 HD
ENDROOT
BRANCH   1   4
ATOM      4  C   UNL     1     -10.843   8.266  -5.305  0.00  0.00    +0.000 C 
ATOM      5  H   UNL     1     -11.002   7.763  -4.347  0.00  0.00    +0.000 HD
ATOM      6  H   UNL     1     -11.796   8.692  -5.632  0.00  0.00    +0.000 HD
ATOM      7  H   UNL     1     -10.138   9.088  -5.148  0.00  0.00    +0.000 HD
ENDBRANCH   1   4
BRANCH   1   8
ATOM      8  C   UNL     1      -8.804   7.037  -6.183  0.00  0.00    +0.000 C 
ATOM      9  H   UNL     1      -8.392   6.633  -7.114  0.00  0.00    +0.000 HD
ATOM     10  H   UNL     1      -8.291   7.975  -5.944  0.00  0.00    +0.000 HD
BRANCH   8  12
ATOM     11  O   UNL     1      -9.090   4.970  -4.966  0.00  0.00    +0.000 OA
ATOM     12  C   UNL     1      -8.521   6.050  -5.079  0.00  0.00    +0.000 C 
BRANCH  12  13
ATOM     13  O   UNL     1      -7.549   6.469  -4.232  0.00  0.00    +0.000 OA
ATOM     14  H   UNL     1      -6.668   6.489  -4.665  0.00  0.00    +0.000 HD
ENDBRANCH  12  13
ENDBRANCH   8  12
ENDBRANCH   1   8
TORSDOF 4
ENDMDL
MODEL 10
REMARK VINA RESULT:    -3.078     28.015     28.757
REMARK INTER + INTRA:          -3.686
REMARK INTER:                  -3.618
REMARK INTRA:                  -0.068
REMARK UNBOUND:                -0.068
REMARK  Name = 264
REMARK  4 active torsions:
REMARK  status: ('A' for Active; 'I' for Inactive)
REMARK    1  A    between atoms: O_1  and  C_6
REMARK    2  A    between atoms: C_3  and  C_4
REMARK    3  A    between atoms: C_3  and  C_5
REMARK    4  A    between atoms: C_4  and  C_6
REMARK                            x       y       z     vdW  Elec       q    Type
REMARK                         _______ _______ _______ _____ _____    ______ ____
ROOT
ATOM      1  C   UNL     1       4.805   9.564   1.380  0.00  0.00    +0.000 C 
ATOM      2  H   UNL     1       4.533   8.737   2.047  0.00  0.00    +0.000 HD
ATOM      3  H   UNL     1       5.528  10.181   1.927  0.00  0.00    +0.000 HD
ENDROOT
BRANCH   1   4
ATOM      4  C   UNL     1       5.484   8.996   0.141  0.00  0.00    +0.000 C 
ATOM      5  H   UNL     1       4.965   9.314  -0.768  0.00  0.00    +0.000 HD
ATOM      6  H   UNL     1       5.491   7.902   0.168  0.00  0.00    +0.000 HD
ATOM      7  H   UNL     1       6.520   9.343   0.083  0.00  0.00    +0.000 HD
ENDBRANCH   1   4
BRANCH   1   8
ATOM      8  C   UNL     1       3.568  10.389   1.049  0.00  0.00    +0.000 C 
ATOM      9  H   UNL     1       2.851   9.781   0.487  0.00  0.00    +0.000 HD
ATOM     10  H   UNL     1       3.094  10.732   1.975  0.00  0.00    +0.000 HD
BRANCH   8  12
ATOM     11  O   UNL     1       4.746  12.434   0.536  0.00  0.00    +0.000 OA
ATOM     12  C   UNL     1       3.908  11.600   0.217  0.00  0.00    +0.000 C 
BRANCH  12  13
ATOM     13  O   UNL     1       3.204  11.659  -0.941  0.00  0.00    +0.000 OA
ATOM     14  H   UNL     1       3.249  12.549  -1.353  0.00  0.00    +0.000 HD
ENDBRANCH  12  13
ENDBRANCH   8  12
ENDBRANCH   1   8
TORSDOF 4
ENDMDL
