MODEL 1
REMARK VINA RESULT:    -4.089      0.000      0.000
REMARK INTER + INTRA:          -6.006
REMARK INTER:                  -5.712
REMARK INTRA:                  -0.294
REMARK UNBOUND:                -0.243
REMARK  Name = 7983
REMARK  8 active torsions:
REMARK  status: ('A' for Active; 'I' for Inactive)
REMARK    1  A    between atoms: O_1  and  C_5
REMARK    2  A    between atoms: O_1  and  C_9
REMARK    3  A    between atoms: C_3  and  C_4
REMARK    4  A    between atoms: C_3  and  C_5
REMARK    5  A    between atoms: C_4  and  C_8
REMARK    6  A    between atoms: C_6  and  C_7
REMARK    7  A    between atoms: C_6  and  C_9
REMARK    8  A    between atoms: C_7  and  C_10
REMARK                            x       y       z     vdW  Elec       q    Type
REMARK                         _______ _______ _______ _____ _____    ______ ____
ROOT
ATOM      1  O   UNL     1      -1.213  10.044 -10.386  0.00  0.00    +0.000 OA
ENDROOT
BRANCH   1   2
ATOM      2  C   UNL     1      -0.758  10.169 -11.736  0.00  0.00    +0.000 C 
ATOM      3  H   UNL     1       0.087  10.867 -11.770  0.00  0.00    +0.000 HD
ATOM      4  H   UNL     1      -1.573  10.559 -12.358  0.00  0.00    +0.000 HD
BRANCH   2   5
ATOM      5  C   UNL     1      -0.325   8.799 -12.239  0.00  0.00    +0.000 C 
ATOM      6  H   UNL     1      -0.870   8.021 -11.689  0.00  0.00    +0.000 HD
ATOM      7  H   UNL     1       0.735   8.646 -12.002  0.00  0.00    +0.000 HD
BRANCH   5   8
ATOM      8  C   UNL     1      -0.558   8.649 -13.739  0.00  0.00    +0.000 C 
ATOM      9  H   UNL     1      -1.531   9.075 -14.010  0.00  0.00    +0.000 HD
ATOM     10  H   UNL     1      -0.584   7.587 -14.008  0.00  0.00    +0.000 HD
BRANCH   8  11
ATOM     11  C   UNL     1       0.529   9.343 -14.543  0.00  0.00    +0.000 C 
ATOM     12  H   UNL     1       1.508   9.219 -14.069  0.00  0.00    +0.000 HD
ATOM     13  H   UNL     1       0.585   8.939 -15.558  0.00  0.00    +0.000 HD
ATOM     14  H   UNL     1       0.321  10.416 -14.616  0.00  0.00    +0.000 HD
ENDBRANCH   8  11
ENDBRANCH   5   8
ENDBRANCH   2   5
ENDBRANCH   1   2
BRANCH   1  16
ATOM     15  O   UNL     1      -3.458  10.205 -10.891  0.00  0.00    +0.000 OA
ATOM     16  C   UNL     1      -2.536   9.739 -10.236  0.00  0.00    +0.000 C 
BRANCH  16  17
ATOM     17  C   UNL     1      -2.681   8.725  -9.124  0.00  0.00    +0.000 C 
ATOM     18  H   UNL     1      -1.750   8.717  -8.546  0.00  0.00    +0.000 HD
ATOM     19  H   UNL     1      -3.502   9.044  -8.474  0.00  0.00    +0.000 HD
BRANCH  17  20
ATOM     20  C   UNL     1      -2.965   7.324  -9.661  0.00  0.00    +0.000 C 
ATOM     21  H   UNL     1      -3.355   7.388 -10.685  0.00  0.00    +0.000 HD
ATOM     22  H   UNL     1      -2.035   6.746  -9.713  0.00  0.00    +0.000 HD
BRANCH  20  23
ATOM     23  C   UNL     1      -3.965   6.585  -8.787  0.00  0.00    +0.000 C 
ATOM     24  H   UNL     1      -3.881   5.504  -8.944  0.00  0.00    +0.000 HD
ATOM     25  H   UNL     1      -3.785   6.788  -7.727  0.00  0.00    +0.000 HD
ATOM     26  H   UNL     1      -4.991   6.882  -9.025  0.00  0.00    +0.000 HD
ENDBRANCH  20  23
ENDBRANCH  17  20
ENDBRANCH  16  17
ENDBRANCH   1  16
TORSDOF 8
ENDMDL
MODEL 2
REMARK VINA RESULT:    -3.987      1.393      4.021
REMARK INTER + INTRA:          -5.861
REMARK INTER:                  -5.290
REMARK INTRA:                  -0.572
REMARK UNBOUND:                -0.243
REMARK  Name = 7983
REMARK  8 active torsions:
REMARK  status: ('A' for Active; 'I' for Inactive)
REMARK    1  A    between atoms: O_1  and  C_5
REMARK    2  A    between atoms: O_1  and  C_9
REMARK    3  A    between atoms: C_3  and  C_4
REMARK    4  A    between atoms: C_3  and  C_5
REMARK    5  A    between atoms: C_4  and  C_8
REMARK    6  A    between atoms: C_6  and  C_7
REMARK    7  A    between atoms: C_6  and  C_9
REMARK    8  A    between atoms: C_7  and  C_10
REMARK                            x       y       z     vdW  Elec       q    Type
REMARK                         _______ _______ _______ _____ _____    ______ ____
ROOT
ATOM      1  O   UNL     1      -1.498   9.596 -10.487  0.00  0.00    +0.000 OA
ENDROOT
BRANCH   1   2
ATOM      2  C   UNL     1      -2.850   9.477 -10.035  0.00  0.00    +0.000 C 
ATOM      3  H   UNL     1      -3.447   8.980 -10.810  0.00  0.00    +0.000 HD
ATOM      4  H   UNL     1      -3.260  10.476  -9.850  0.00  0.00    +0.000 HD
BRANCH   2   5
ATOM      5  C   UNL     1      -2.870   8.656  -8.753  0.00  0.00    +0.000 C 
ATOM      6  H   UNL     1      -3.590   9.096  -8.051  0.00  0.00    +0.000 HD
ATOM      7  H   UNL     1      -1.891   8.729  -8.263  0.00  0.00    +0.000 HD
BRANCH   5   8
ATOM      8  C   UNL     1      -3.218   7.196  -9.024  0.00  0.00    +0.000 C 
ATOM      9  H   UNL     1      -3.649   6.742  -8.125  0.00  0.00    +0.000 HD
ATOM     10  H   UNL     1      -2.308   6.634  -9.266  0.00  0.00    +0.000 HD
BRANCH   8  11
ATOM     11  C   UNL     1      -4.207   7.063 -10.171  0.00  0.00    +0.000 C 
ATOM     12  H   UNL     1      -3.798   6.439 -10.972  0.00  0.00    +0.000 HD
ATOM     13  H   UNL     1      -5.145   6.614  -9.830  0.00  0.00    +0.000 HD
ATOM     14  H   UNL     1      -4.435   8.048 -10.591  0.00  0.00    +0.000 HD
ENDBRANCH   8  11
ENDBRANCH   5   8
ENDBRANCH   2   5
ENDBRANCH   1   2
BRANCH   1  16
ATOM     15  O   UNL     1      -1.812  10.283 -12.667  0.00  0.00    +0.000 OA
ATOM     16  C   UNL     1      -1.322   9.527 -11.840  0.00  0.00    +0.000 C 
BRANCH  16  17
ATOM     17  C   UNL     1      -0.417   8.357 -12.157  0.00  0.00    +0.000 C 
ATOM     18  H   UNL     1      -0.019   8.498 -13.168  0.00  0.00    +0.000 HD
ATOM     19  H   UNL     1       0.413   8.364 -11.442  0.00  0.00    +0.000 HD
BRANCH  17  20
ATOM     20  C   UNL     1      -1.155   7.024 -12.075  0.00  0.00    +0.000 C 
ATOM     21  H   UNL     1      -0.435   6.197 -12.081  0.00  0.00    +0.000 HD
ATOM     22  H   UNL     1      -1.704   6.957 -11.128  0.00  0.00    +0.000 HD
BRANCH  20  23
ATOM     23  C   UNL     1      -2.128   6.853 -13.230  0.00  0.00    +0.000 C 
ATOM     24  H   UNL     1      -3.083   7.335 -12.997  0.00  0.00    +0.000 HD
ATOM     25  H   UNL     1      -1.733   7.308 -14.145  0.00  0.00    +0.000 HD
ATOM     26  H   UNL     1      -2.321   5.795 -13.427  0.00  0.00    +0.000 HD
ENDBRANCH  20  23
ENDBRANCH  17  20
ENDBRANCH  16  17
ENDBRANCH   1  16
TORSDOF 8
ENDMDL
MODEL 3
REMARK VINA RESULT:    -3.918      1.987      3.363
REMARK INTER + INTRA:          -5.764
REMARK INTER:                  -5.149
REMARK INTRA:                  -0.615
REMARK UNBOUND:                -0.243
REMARK  Name = 7983
REMARK  8 active torsions:
REMARK  status: ('A' for Active; 'I' for Inactive)
REMARK    1  A    between atoms: O_1  and  C_5
REMARK    2  A    between atoms: O_1  and  C_9
REMARK    3  A    between atoms: C_3  and  C_4
REMARK    4  A    between atoms: C_3  and  C_5
REMARK    5  A    between atoms: C_4  and  C_8
REMARK    6  A    between atoms: C_6  and  C_7
REMARK    7  A    between atoms: C_6  and  C_9
REMARK    8  A    between atoms: C_7  and  C_10
REMARK                            x       y       z     vdW  Elec       q    Type
REMARK                         _______ _______ _______ _____ _____    ______ ____
ROOT
ATOM      1  O   UNL     1      -0.626   8.627 -12.721  0.00  0.00    +0.000 OA
ENDROOT
BRANCH   1   2
ATOM      2  C   UNL     1      -1.488   7.506 -12.933  0.00  0.00    +0.000 C 
ATOM      3  H   UNL     1      -1.054   6.857 -13.704  0.00  0.00    +0.000 HD
ATOM      4  H   UNL     1      -2.468   7.861 -13.269  0.00  0.00    +0.000 HD
BRANCH   2   5
ATOM      5  C   UNL     1      -1.629   6.739 -11.625  0.00  0.00    +0.000 C 
ATOM      6  H   UNL     1      -1.011   7.219 -10.854  0.00  0.00    +0.000 HD
ATOM      7  H   UNL     1      -1.218   5.730 -11.752  0.00  0.00    +0.000 HD
BRANCH   5   8
ATOM      8  C   UNL     1      -3.083   6.665 -11.169  0.00  0.00    +0.000 C 
ATOM      9  H   UNL     1      -3.207   7.210 -10.226  0.00  0.00    +0.000 HD
ATOM     10  H   UNL     1      -3.362   5.623 -10.980  0.00  0.00    +0.000 HD
BRANCH   8  11
ATOM     11  C   UNL     1      -4.023   7.254 -12.210  0.00  0.00    +0.000 C 
ATOM     12  H   UNL     1      -3.594   7.177 -13.214  0.00  0.00    +0.000 HD
ATOM     13  H   UNL     1      -4.985   6.735 -12.206  0.00  0.00    +0.000 HD
ATOM     14  H   UNL     1      -4.206   8.313 -12.000  0.00  0.00    +0.000 HD
ENDBRANCH   8  11
ENDBRANCH   5   8
ENDBRANCH   2   5
ENDBRANCH   1   2
BRANCH   1  16
ATOM     15  O   UNL     1      -1.831  10.498 -13.328  0.00  0.00    +0.000 OA
ATOM     16  C   UNL     1      -1.255   9.818 -12.491  0.00  0.00    +0.000 C 
BRANCH  16  17
ATOM     17  C   UNL     1      -1.127  10.163 -11.024  0.00  0.00    +0.000 C 
ATOM     18  H   UNL     1      -0.426   9.456 -10.567  0.00  0.00    +0.000 HD
ATOM     19  H   UNL     1      -0.717  11.175 -10.945  0.00  0.00    +0.000 HD
BRANCH  17  20
ATOM     20  C   UNL     1      -2.470  10.096 -10.302  0.00  0.00    +0.000 C 
ATOM     21  H   UNL     1      -2.869  11.108 -10.158  0.00  0.00    +0.000 HD
ATOM     22  H   UNL     1      -3.200   9.554 -10.916  0.00  0.00    +0.000 HD
BRANCH  20  23
ATOM     23  C   UNL     1      -2.344   9.408  -8.952  0.00  0.00    +0.000 C 
ATOM     24  H   UNL     1      -1.901   8.414  -9.073  0.00  0.00    +0.000 HD
ATOM     25  H   UNL     1      -1.702   9.984  -8.277  0.00  0.00    +0.000 HD
ATOM     26  H   UNL     1      -3.322   9.289  -8.479  0.00  0.00    +0.000 HD
ENDBRANCH  20  23
ENDBRANCH  17  20
ENDBRANCH  16  17
ENDBRANCH   1  16
TORSDOF 8
ENDMDL
MODEL 4
REMARK VINA RESULT:    -3.917     17.666     19.507
REMARK INTER + INTRA:          -5.763
REMARK INTER:                  -5.520
REMARK INTRA:                  -0.243
REMARK UNBOUND:                -0.243
REMARK  Name = 7983
REMARK  8 active torsions:
REMARK  status: ('A' for Active; 'I' for Inactive)
REMARK    1  A    between atoms: O_1  and  C_5
REMARK    2  A    between atoms: O_1  and  C_9
REMARK    3  A    between atoms: C_3  and  C_4
REMARK    4  A    between atoms: C_3  and  C_5
REMARK    5  A    between atoms: C_4  and  C_8
REMARK    6  A    between atoms: C_6  and  C_7
REMARK    7  A    between atoms: C_6  and  C_9
REMARK    8  A    between atoms: C_7  and  C_10
REMARK                            x       y       z     vdW  Elec       q    Type
REMARK                         _______ _______ _______ _____ _____    ______ ____
ROOT
ATOM      1  O   UNL     1      -8.129  11.284   6.963  0.00  0.00    +0.000 OA
ENDROOT
BRANCH   1   2
ATOM      2  C   UNL     1      -8.371  10.913   5.603  0.00  0.00    +0.000 C 
ATOM      3  H   UNL     1      -9.385  11.223   5.320  0.00  0.00    +0.000 HD
ATOM      4  H   UNL     1      -8.286   9.825   5.504  0.00  0.00    +0.000 HD
BRANCH   2   5
ATOM      5  C   UNL     1      -7.346  11.603   4.714  0.00  0.00    +0.000 C 
ATOM      6  H   UNL     1      -7.535  11.336   3.666  0.00  0.00    +0.000 HD
ATOM      7  H   UNL     1      -6.347  11.214   4.947  0.00  0.00    +0.000 HD
BRANCH   5   8
ATOM      8  C   UNL     1      -7.377  13.118   4.889  0.00  0.00    +0.000 C 
ATOM      9  H   UNL     1      -8.118  13.391   5.650  0.00  0.00    +0.000 HD
ATOM     10  H   UNL     1      -7.685  13.595   3.952  0.00  0.00    +0.000 HD
BRANCH   8  11
ATOM     11  C   UNL     1      -6.018  13.659   5.304  0.00  0.00    +0.000 C 
ATOM     12  H   UNL     1      -6.036  14.014   6.339  0.00  0.00    +0.000 HD
ATOM     13  H   UNL     1      -5.246  12.888   5.217  0.00  0.00    +0.000 HD
ATOM     14  H   UNL     1      -5.732  14.499   4.662  0.00  0.00    +0.000 HD
ENDBRANCH   8  11
ENDBRANCH   5   8
ENDBRANCH   2   5
ENDBRANCH   1   2
BRANCH   1  16
ATOM     15  O   UNL     1      -9.822  11.203   8.529  0.00  0.00    +0.000 OA
ATOM     16  C   UNL     1      -8.923  10.671   7.891  0.00  0.00    +0.000 C 
BRANCH  16  17
ATOM     17  C   UNL     1      -8.514   9.220   8.004  0.00  0.00    +0.000 C 
ATOM     18  H   UNL     1      -9.337   8.604   7.623  0.00  0.00    +0.000 HD
ATOM     19  H   UNL     1      -7.630   9.064   7.376  0.00  0.00    +0.000 HD
BRANCH  17  20
ATOM     20  C   UNL     1      -8.198   8.825   9.444  0.00  0.00    +0.000 C 
ATOM     21  H   UNL     1      -9.077   8.993  10.079  0.00  0.00    +0.000 HD
ATOM     22  H   UNL     1      -7.969   7.754   9.497  0.00  0.00    +0.000 HD
BRANCH  20  23
ATOM     23  C   UNL     1      -7.022   9.616   9.993  0.00  0.00    +0.000 C 
ATOM     24  H   UNL     1      -7.361  10.312  10.768  0.00  0.00    +0.000 HD
ATOM     25  H   UNL     1      -6.276   8.950  10.439  0.00  0.00    +0.000 HD
ATOM     26  H   UNL     1      -6.537  10.198   9.204  0.00  0.00    +0.000 HD
ENDBRANCH  20  23
ENDBRANCH  17  20
ENDBRANCH  16  17
ENDBRANCH   1  16
TORSDOF 8
ENDMDL
MODEL 5
REMARK VINA RESULT:    -3.905      9.122     10.038
REMARK INTER + INTRA:          -5.746
REMARK INTER:                  -5.386
REMARK INTRA:                  -0.360
REMARK UNBOUND:                -0.243
REMARK  Name = 7983
REMARK  8 active torsions:
REMARK  status: ('A' for Active; 'I' for Inactive)
REMARK    1  A    between atoms: O_1  and  C_5
REMARK    2  A    between atoms: O_1  and  C_9
REMARK    3  A    between atoms: C_3  and  C_4
REMARK    4  A    between atoms: C_3  and  C_5
REMARK    5  A    between atoms: C_4  and  C_8
REMARK    6  A    between atoms: C_6  and  C_7
REMARK    7  A    between atoms: C_6  and  C_9
REMARK    8  A    between atoms: C_7  and  C_10
REMARK                            x       y       z     vdW  Elec       q    Type
REMARK                         _______ _______ _______ _____ _____    ______ ____
ROOT
ATOM      1  O   UNL     1      -8.683   6.291  -6.622  0.00  0.00    +0.000 OA
ENDROOT
BRANCH   1   2
ATOM      2  C   UNL     1      -9.048   7.046  -5.463  0.00  0.00    +0.000 C 
ATOM      3  H   UNL     1      -8.290   7.817  -5.281  0.00  0.00    +0.000 HD
ATOM      4  H   UNL     1      -9.098   6.377  -4.596  0.00  0.00    +0.000 HD
BRANCH   2   5
ATOM      5  C   UNL     1     -10.405   7.693  -5.704  0.00  0.00    +0.000 C 
ATOM      6  H   UNL     1     -11.020   7.598  -4.800  0.00  0.00    +0.000 HD
ATOM      7  H   UNL     1     -10.936   7.138  -6.487  0.00  0.00    +0.000 HD
BRANCH   5   8
ATOM      8  C   UNL     1     -10.267   9.161  -6.098  0.00  0.00    +0.000 C 
ATOM      9  H   UNL     1      -9.268   9.526  -5.833  0.00  0.00    +0.000 HD
ATOM     10  H   UNL     1     -10.992   9.766  -5.542  0.00  0.00    +0.000 HD
BRANCH   8  11
ATOM     11  C   UNL     1     -10.488   9.360  -7.590  0.00  0.00    +0.000 C 
ATOM     12  H   UNL     1      -9.906  10.209  -7.962  0.00  0.00    +0.000 HD
ATOM     13  H   UNL     1     -10.195   8.469  -8.152  0.00  0.00    +0.000 HD
ATOM     14  H   UNL     1     -11.545   9.559  -7.793  0.00  0.00    +0.000 HD
ENDBRANCH   8  11
ENDBRANCH   5   8
ENDBRANCH   2   5
ENDBRANCH   1   2
BRANCH   1  16
ATOM     15  O   UNL     1      -7.573   4.354  -7.202  0.00  0.00    +0.000 OA
ATOM     16  C   UNL     1      -8.122   5.070  -6.376  0.00  0.00    +0.000 C 
BRANCH  16  17
ATOM     17  C   UNL     1      -8.287   4.743  -4.909  0.00  0.00    +0.000 C 
ATOM     18  H   UNL     1      -7.293   4.747  -4.445  0.00  0.00    +0.000 HD
ATOM     19  H   UNL     1      -8.899   5.526  -4.450  0.00  0.00    +0.000 HD
BRANCH  17  20
ATOM     20  C   UNL     1      -8.948   3.383  -4.698  0.00  0.00    +0.000 C 
ATOM     21  H   UNL     1      -8.358   2.600  -5.189  0.00  0.00    +0.000 HD
ATOM     22  H   UNL     1      -8.968   3.139  -3.629  0.00  0.00    +0.000 HD
BRANCH  20  23
ATOM     23  C   UNL     1     -10.366   3.362  -5.243  0.00  0.00    +0.000 C 
ATOM     24  H   UNL     1     -10.400   3.831  -6.232  0.00  0.00    +0.000 HD
ATOM     25  H   UNL     1     -10.733   2.335  -5.342  0.00  0.00    +0.000 HD
ATOM     26  H   UNL     1     -11.048   3.909  -4.585  0.00  0.00    +0.000 HD
ENDBRANCH  20  23
ENDBRANCH  17  20
ENDBRANCH  16  17
ENDBRANCH   1  16
TORSDOF 8
ENDMDL
MODEL 6
REMARK VINA RESULT:    -3.891      1.817      2.089
REMARK INTER + INTRA:          -5.726
REMARK INTER:                  -5.279
REMARK INTRA:                  -0.447
REMARK UNBOUND:                -0.243
REMARK  Name = 7983
REMARK  8 active torsions:
REMARK  status: ('A' for Active; 'I' for Inactive)
REMARK    1  A    between atoms: O_1  and  C_5
REMARK    2  A    between atoms: O_1  and  C_9
REMARK    3  A    between atoms: C_3  and  C_4
REMARK    4  A    between atoms: C_3  and  C_5
REMARK    5  A    between atoms: C_4  and  C_8
REMARK    6  A    between atoms: C_6  and  C_7
REMARK    7  A    between atoms: C_6  and  C_9
REMARK    8  A    between atoms: C_7  and  C_10
REMARK                            x       y       z     vdW  Elec       q    Type
REMARK                         _______ _______ _______ _____ _____    ______ ____
ROOT
ATOM      1  O   UNL     1      -2.593   9.162 -10.426  0.00  0.00    +0.000 OA
ENDROOT
BRANCH   1   2
ATOM      2  C   UNL     1      -1.326   9.818 -10.329  0.00  0.00    +0.000 C 
ATOM      3  H   UNL     1      -0.737   9.349  -9.531  0.00  0.00    +0.000 HD
ATOM      4  H   UNL     1      -1.482  10.876 -10.089  0.00  0.00    +0.000 HD
BRANCH   2   5
ATOM      5  C   UNL     1      -0.600   9.686 -11.661  0.00  0.00    +0.000 C 
ATOM      6  H   UNL     1      -0.076   8.722 -11.696  0.00  0.00    +0.000 HD
ATOM      7  H   UNL     1       0.181  10.454 -11.724  0.00  0.00    +0.000 HD
BRANCH   5   8
ATOM      8  C   UNL     1      -1.560   9.809 -12.841  0.00  0.00    +0.000 C 
ATOM      9  H   UNL     1      -2.533  10.176 -12.494  0.00  0.00    +0.000 HD
ATOM     10  H   UNL     1      -1.727   8.824 -13.290  0.00  0.00    +0.000 HD
BRANCH   8  11
ATOM     11  C   UNL     1      -1.021  10.758 -13.900  0.00  0.00    +0.000 C 
ATOM     12  H   UNL     1      -1.643  10.735 -14.800  0.00  0.00    +0.000 HD
ATOM     13  H   UNL     1      -0.992  11.786 -13.528  0.00  0.00    +0.000 HD
ATOM     14  H   UNL     1      -0.003  10.470 -14.184  0.00  0.00    +0.000 HD
ENDBRANCH   8  11
ENDBRANCH   5   8
ENDBRANCH   2   5
ENDBRANCH   1   2
BRANCH   1  16
ATOM     15  O   UNL     1      -3.022   8.381  -8.299  0.00  0.00    +0.000 OA
ATOM     16  C   UNL     1      -2.828   8.194  -9.492  0.00  0.00    +0.000 C 
BRANCH  16  17
ATOM     17  C   UNL     1      -2.809   6.843 -10.171  0.00  0.00    +0.000 C 
ATOM     18  H   UNL     1      -1.764   6.561 -10.339  0.00  0.00    +0.000 HD
ATOM     19  H   UNL     1      -3.272   6.114  -9.497  0.00  0.00    +0.000 HD
BRANCH  17  20
ATOM     20  C   UNL     1      -3.559   6.862 -11.501  0.00  0.00    +0.000 C 
ATOM     21  H   UNL     1      -3.349   7.797 -12.035  0.00  0.00    +0.000 HD
ATOM     22  H   UNL     1      -3.204   6.046 -12.142  0.00  0.00    +0.000 HD
BRANCH  20  23
ATOM     23  C   UNL     1      -5.058   6.723 -11.298  0.00  0.00    +0.000 C 
ATOM     24  H   UNL     1      -5.301   5.719 -10.936  0.00  0.00    +0.000 HD
ATOM     25  H   UNL     1      -5.423   7.446 -10.560  0.00  0.00    +0.000 HD
ATOM     26  H   UNL     1      -5.598   6.886 -12.235  0.00  0.00    +0.000 HD
ENDBRANCH  20  23
ENDBRANCH  17  20
ENDBRANCH  16  17
ENDBRANCH   1  16
TORSDOF 8
ENDMDL
MODEL 7
REMARK VINA RESULT:    -3.799     26.238     28.002
REMARK INTER + INTRA:          -5.597
REMARK INTER:                  -5.389
REMARK INTRA:                  -0.208
REMARK UNBOUND:                -0.243
REMARK  Name = 7983
REMARK  8 active torsions:
REMARK  status: ('A' for Active; 'I' for Inactive)
REMARK    1  A    between atoms: O_1  and  C_5
REMARK    2  A    between atoms: O_1  and  C_9
REMARK    3  A    between atoms: C_3  and  C_4
REMARK    4  A    between atoms: C_3  and  C_5
REMARK    5  A    between atoms: C_4  and  C_8
REMARK    6  A    between atoms: C_6  and  C_7
REMARK    7  A    between atoms: C_6  and  C_9
REMARK    8  A    between atoms: C_7  and  C_10
REMARK                            x       y       z     vdW  Elec       q    Type
REMARK                         _______ _______ _______ _____ _____    ______ ____
ROOT
ATOM      1  O   UNL     1     -21.729  -3.629   5.004  0.00  0.00    +0.000 OA
ENDROOT
BRANCH   1   2
ATOM      2  C   UNL     1     -20.825  -3.036   5.940  0.00  0.00    +0.000 C 
ATOM      3  H   UNL     1     -19.820  -3.445   5.779  0.00  0.00    +0.000 HD
ATOM      4  H   UNL     1     -21.152  -3.272   6.959  0.00  0.00    +0.000 HD
BRANCH   2   5
ATOM      5  C   UNL     1     -20.816  -1.529   5.728  0.00  0.00    +0.000 C 
ATOM      6  H   UNL     1     -21.836  -1.186   5.509  0.00  0.00    +0.000 HD
ATOM      7  H   UNL     1     -20.223  -1.293   4.836  0.00  0.00    +0.000 HD
BRANCH   5   8
ATOM      8  C   UNL     1     -20.260  -0.793   6.943  0.00  0.00    +0.000 C 
ATOM      9  H   UNL     1     -19.869   0.186   6.641  0.00  0.00    +0.000 HD
ATOM     10  H   UNL     1     -19.424  -1.358   7.371  0.00  0.00    +0.000 HD
BRANCH   8  11
ATOM     11  C   UNL     1     -21.326  -0.593   8.009  0.00  0.00    +0.000 C 
ATOM     12  H   UNL     1     -20.872  -0.360   8.978  0.00  0.00    +0.000 HD
ATOM     13  H   UNL     1     -22.001   0.224   7.740  0.00  0.00    +0.000 HD
ATOM     14  H   UNL     1     -21.922  -1.504   8.125  0.00  0.00    +0.000 HD
ENDBRANCH   8  11
ENDBRANCH   5   8
ENDBRANCH   2   5
ENDBRANCH   1   2
BRANCH   1  16
ATOM     15  O   UNL     1     -21.772  -5.169   3.286  0.00  0.00    +0.000 OA
ATOM     16  C   UNL     1     -21.191  -4.587   4.191  0.00  0.00    +0.000 C 
BRANCH  16  17
ATOM     17  C   UNL     1     -19.751  -4.815   4.592  0.00  0.00    +0.000 C 
ATOM     18  H   UNL     1     -19.249  -3.842   4.626  0.00  0.00    +0.000 HD
ATOM     19  H   UNL     1     -19.740  -5.258   5.594  0.00  0.00    +0.000 HD
BRANCH  17  20
ATOM     20  C   UNL     1     -19.025  -5.736   3.615  0.00  0.00    +0.000 C 
ATOM     21  H   UNL     1     -18.367  -6.421   4.165  0.00  0.00    +0.000 HD
ATOM     22  H   UNL     1     -19.749  -6.359   3.077  0.00  0.00    +0.000 HD
BRANCH  20  23
ATOM     23  C   UNL     1     -18.202  -4.945   2.611  0.00  0.00    +0.000 C 
ATOM     24  H   UNL     1     -17.241  -4.657   3.051  0.00  0.00    +0.000 HD
ATOM     25  H   UNL     1     -17.999  -5.541   1.715  0.00  0.00    +0.000 HD
ATOM     26  H   UNL     1     -18.723  -4.033   2.308  0.00  0.00    +0.000 HD
ENDBRANCH  20  23
ENDBRANCH  17  20
ENDBRANCH  16  17
ENDBRANCH   1  16
TORSDOF 8
ENDMDL
MODEL 8
REMARK VINA RESULT:    -3.733     32.464     34.426
REMARK INTER + INTRA:          -5.503
REMARK INTER:                  -5.070
REMARK INTRA:                  -0.433
REMARK UNBOUND:                -0.243
REMARK  Name = 7983
REMARK  8 active torsions:
REMARK  status: ('A' for Active; 'I' for Inactive)
REMARK    1  A    between atoms: O_1  and  C_5
REMARK    2  A    between atoms: O_1  and  C_9
REMARK    3  A    between atoms: C_3  and  C_4
REMARK    4  A    between atoms: C_3  and  C_5
REMARK    5  A    between atoms: C_4  and  C_8
REMARK    6  A    between atoms: C_6  and  C_7
REMARK    7  A    between atoms: C_6  and  C_9
REMARK    8  A    between atoms: C_7  and  C_10
REMARK                            x       y       z     vdW  Elec       q    Type
REMARK                         _______ _______ _______ _____ _____    ______ ____
ROOT
ATOM      1  O   UNL     1     -13.291  -5.605  16.570  0.00  0.00    +0.000 OA
ENDROOT
BRANCH   1   2
ATOM      2  C   UNL     1     -13.384  -4.596  15.561  0.00  0.00    +0.000 C 
ATOM      3  H   UNL     1     -13.082  -5.021  14.596  0.00  0.00    +0.000 HD
ATOM      4  H   UNL     1     -12.713  -3.766  15.815  0.00  0.00    +0.000 HD
BRANCH   2   5
ATOM      5  C   UNL     1     -14.822  -4.103  15.487  0.00  0.00    +0.000 C 
ATOM      6  H   UNL     1     -14.907  -3.344  14.699  0.00  0.00    +0.000 HD
ATOM      7  H   UNL     1     -15.077  -3.591  16.424  0.00  0.00    +0.000 HD
BRANCH   5   8
ATOM      8  C   UNL     1     -15.797  -5.248  15.229  0.00  0.00    +0.000 C 
ATOM      9  H   UNL     1     -15.265  -6.205  15.256  0.00  0.00    +0.000 HD
ATOM     10  H   UNL     1     -16.233  -5.147  14.228  0.00  0.00    +0.000 HD
BRANCH   8  11
ATOM     11  C   UNL     1     -16.914  -5.271  16.260  0.00  0.00    +0.000 C 
ATOM     12  H   UNL     1     -16.510  -5.360  17.274  0.00  0.00    +0.000 HD
ATOM     13  H   UNL     1     -17.516  -4.359  16.208  0.00  0.00    +0.000 HD
ATOM     14  H   UNL     1     -17.576  -6.126  16.084  0.00  0.00    +0.000 HD
ENDBRANCH   8  11
ENDBRANCH   5   8
ENDBRANCH   2   5
ENDBRANCH   1   2
BRANCH   1  16
ATOM     15  O   UNL     1     -12.684  -4.158  18.261  0.00  0.00    +0.000 OA
ATOM     16  C   UNL     1     -13.277  -5.149  17.858  0.00  0.00    +0.000 C 
BRANCH  16  17
ATOM     17  C   UNL     1     -14.118  -6.070  18.712  0.00  0.00    +0.000 C 
ATOM     18  H   UNL     1     -15.070  -6.238  18.196  0.00  0.00    +0.000 HD
ATOM     19  H   UNL     1     -13.590  -7.024  18.810  0.00  0.00    +0.000 HD
BRANCH  17  20
ATOM     20  C   UNL     1     -14.380  -5.484  20.097  0.00  0.00    +0.000 C 
ATOM     21  H   UNL     1     -13.953  -4.476  20.164  0.00  0.00    +0.000 HD
ATOM     22  H   UNL     1     -15.459  -5.381  20.263  0.00  0.00    +0.000 HD
BRANCH  20  23
ATOM     23  C   UNL     1     -13.787  -6.355  21.192  0.00  0.00    +0.000 C 
ATOM     24  H   UNL     1     -13.650  -5.772  22.109  0.00  0.00    +0.000 HD
ATOM     25  H   UNL     1     -14.446  -7.199  21.423  0.00  0.00    +0.000 HD
ATOM     26  H   UNL     1     -12.812  -6.752  20.894  0.00  0.00    +0.000 HD
ENDBRANCH  20  23
ENDBRANCH  17  20
ENDBRANCH  16  17
ENDBRANCH   1  16
TORSDOF 8
ENDMDL
MODEL 9
REMARK VINA RESULT:    -3.724      2.272      5.153
REMARK INTER + INTRA:          -5.491
REMARK INTER:                  -5.247
REMARK INTRA:                  -0.243
REMARK UNBOUND:                -0.243
REMARK  Name = 7983
REMARK  8 active torsions:
REMARK  status: ('A' for Active; 'I' for Inactive)
REMARK    1  A    between atoms: O_1  and  C_5
REMARK    2  A    between atoms: O_1  and  C_9
REMARK    3  A    between atoms: C_3  and  C_4
REMARK    4  A    between atoms: C_3  and  C_5
REMARK    5  A    between atoms: C_4  and  C_8
REMARK    6  A    between atoms: C_6  and  C_7
REMARK    7  A    between atoms: C_6  and  C_9
REMARK    8  A    between atoms: C_7  and  C_10
REMARK                            x       y       z     vdW  Elec       q    Type
REMARK                         _______ _______ _______ _____ _____    ______ ____
ROOT
ATOM      1  O   UNL     1      -0.439   8.123 -12.273  0.00  0.00    +0.000 OA
ENDROOT
BRANCH   1   2
ATOM      2  C   UNL     1      -1.750   8.210 -11.708  0.00  0.00    +0.000 C 
ATOM      3  H   UNL     1      -2.457   8.532 -12.483  0.00  0.00    +0.000 HD
ATOM      4  H   UNL     1      -1.747   8.946 -10.895  0.00  0.00    +0.000 HD
BRANCH   2   5
ATOM      5  C   UNL     1      -2.148   6.841 -11.174  0.00  0.00    +0.000 C 
ATOM      6  H   UNL     1      -1.243   6.263 -10.945  0.00  0.00    +0.000 HD
ATOM      7  H   UNL     1      -2.669   6.283 -11.962  0.00  0.00    +0.000 HD
BRANCH   5   8
ATOM      8  C   UNL     1      -3.031   6.955  -9.935  0.00  0.00    +0.000 C 
ATOM      9  H   UNL     1      -2.775   6.164  -9.220  0.00  0.00    +0.000 HD
ATOM     10  H   UNL     1      -4.082   6.813 -10.212  0.00  0.00    +0.000 HD
BRANCH   8  11
ATOM     11  C   UNL     1      -2.871   8.307  -9.259  0.00  0.00    +0.000 C 
ATOM     12  H   UNL     1      -3.831   8.829  -9.192  0.00  0.00    +0.000 HD
ATOM     13  H   UNL     1      -2.469   8.195  -8.248  0.00  0.00    +0.000 HD
ATOM     14  H   UNL     1      -2.182   8.937  -9.831  0.00  0.00    +0.000 HD
ENDBRANCH   8  11
ENDBRANCH   5   8
ENDBRANCH   2   5
ENDBRANCH   1   2
BRANCH   1  16
ATOM     15  O   UNL     1       0.497   8.870 -14.245  0.00  0.00    +0.000 OA
ATOM     16  C   UNL     1      -0.144   9.061 -13.221  0.00  0.00    +0.000 C 
BRANCH  16  17
ATOM     17  C   UNL     1      -0.741  10.386 -12.801  0.00  0.00    +0.000 C 
ATOM     18  H   UNL     1      -1.713  10.188 -12.334  0.00  0.00    +0.000 HD
ATOM     19  H   UNL     1      -0.075  10.842 -12.060  0.00  0.00    +0.000 HD
BRANCH  17  20
ATOM     20  C   UNL     1      -0.921  11.333 -13.984  0.00  0.00    +0.000 C 
ATOM     21  H   UNL     1      -0.841  10.775 -14.925  0.00  0.00    +0.000 HD
ATOM     22  H   UNL     1      -1.925  11.774 -13.962  0.00  0.00    +0.000 HD
BRANCH  20  23
ATOM     23  C   UNL     1       0.114  12.446 -13.969  0.00  0.00    +0.000 C 
ATOM     24  H   UNL     1      -0.379  13.423 -13.938  0.00  0.00    +0.000 HD
ATOM     25  H   UNL     1       0.764  12.366 -13.091  0.00  0.00    +0.000 HD
ATOM     26  H   UNL     1       0.741  12.411 -14.865  0.00  0.00    +0.000 HD
ENDBRANCH  20  23
ENDBRANCH  17  20
ENDBRANCH  16  17
ENDBRANCH   1  16
TORSDOF 8
ENDMDL
MODEL 10
REMARK VINA RESULT:    -3.671      1.486      4.904
REMARK INTER + INTRA:          -5.416
REMARK INTER:                  -5.105
REMARK INTRA:                  -0.311
REMARK UNBOUND:                -0.243
REMARK  Name = 7983
REMARK  8 active torsions:
REMARK  status: ('A' for Active; 'I' for Inactive)
REMARK    1  A    between atoms: O_1  and  C_5
REMARK    2  A    between atoms: O_1  and  C_9
REMARK    3  A    between atoms: C_3  and  C_4
REMARK    4  A    between atoms: C_3  and  C_5
REMARK    5  A    between atoms: C_4  and  C_8
REMARK    6  A    between atoms: C_6  and  C_7
REMARK    7  A    between atoms: C_6  and  C_9
REMARK    8  A    between atoms: C_7  and  C_10
REMARK                            x       y       z     vdW  Elec       q    Type
REMARK                         _______ _______ _______ _____ _____    ______ ____
ROOT
ATOM      1  O   UNL     1      -0.959   7.881 -11.876  0.00  0.00    +0.000 OA
ENDROOT
BRANCH   1   2
ATOM      2  C   UNL     1      -2.152   7.322 -12.432  0.00  0.00    +0.000 C 
ATOM      3  H   UNL     1      -1.964   6.279 -12.716  0.00  0.00    +0.000 HD
ATOM      4  H   UNL     1      -2.439   7.892 -13.324  0.00  0.00    +0.000 HD
BRANCH   2   5
ATOM      5  C   UNL     1      -3.259   7.389 -11.389  0.00  0.00    +0.000 C 
ATOM      6  H   UNL     1      -4.170   6.930 -11.795  0.00  0.00    +0.000 HD
ATOM      7  H   UNL     1      -3.512   8.439 -11.198  0.00  0.00    +0.000 HD
BRANCH   5   8
ATOM      8  C   UNL     1      -2.852   6.698 -10.091  0.00  0.00    +0.000 C 
ATOM      9  H   UNL     1      -1.963   7.185  -9.672  0.00  0.00    +0.000 HD
ATOM     10  H   UNL     1      -2.586   5.654 -10.291  0.00  0.00    +0.000 HD
BRANCH   8  11
ATOM     11  C   UNL     1      -3.972   6.741  -9.063  0.00  0.00    +0.000 C 
ATOM     12  H   UNL     1      -4.025   7.722  -8.580  0.00  0.00    +0.000 HD
ATOM     13  H   UNL     1      -4.940   6.534  -9.529  0.00  0.00    +0.000 HD
ATOM     14  H   UNL     1      -3.801   5.989  -8.285  0.00  0.00    +0.000 HD
ENDBRANCH   8  11
ENDBRANCH   5   8
ENDBRANCH   2   5
ENDBRANCH   1   2
BRANCH   1  16
ATOM     15  O   UNL     1      -0.856   9.920 -10.801  0.00  0.00    +0.000 OA
ATOM     16  C   UNL     1      -0.920   9.246 -11.820  0.00  0.00    +0.000 C 
BRANCH  16  17
ATOM     17  C   UNL     1      -0.966   9.796 -13.227  0.00  0.00    +0.000 C 
ATOM     18  H   UNL     1      -1.769   9.281 -13.768  0.00  0.00    +0.000 HD
ATOM     19  H   UNL     1      -1.202  10.864 -13.170  0.00  0.00    +0.000 HD
BRANCH  17  20
ATOM     20  C   UNL     1       0.357   9.600 -13.962  0.00  0.00    +0.000 C 
ATOM     21  H   UNL     1       0.826  10.574 -14.152  0.00  0.00    +0.000 HD
ATOM     22  H   UNL     1       1.054   9.032 -13.335  0.00  0.00    +0.000 HD
BRANCH  20  23
ATOM     23  C   UNL     1       0.161   8.870 -15.280  0.00  0.00    +0.000 C 
ATOM     24  H   UNL     1       0.024   9.588 -16.096  0.00  0.00    +0.000 HD
ATOM     25  H   UNL     1       1.031   8.249 -15.518  0.00  0.00    +0.000 HD
ATOM     26  H   UNL     1      -0.723   8.226 -15.245  0.00  0.00    +0.000 HD
ENDBRANCH  20  23
ENDBRANCH  17  20
ENDBRANCH  16  17
ENDBRANCH   1  16
TORSDOF 8
ENDMDL
