MODEL 1
REMARK VINA RESULT:    -5.446      0.000      0.000
REMARK INTER + INTRA:          -6.197
REMARK INTER:                  -6.077
REMARK INTRA:                  -0.120
REMARK UNBOUND:                -0.115
REMARK  Name = 637511
REMARK  2 active torsions:
REMARK  status: ('A' for Active; 'I' for Inactive)
REMARK    1  A    between atoms: C_2  and  C_7
REMARK    2  A    between atoms: C_9  and  C_10
REMARK                            x       y       z     vdW  Elec       q    Type
REMARK                         _______ _______ _______ _____ _____    ______ ____
ROOT
ATOM      1  C   UNL     1      -1.767   8.672 -10.937  0.00  0.00    +0.000 A 
ATOM      2  C   UNL     1      -2.212   7.356 -11.061  0.00  0.00    +0.000 A 
ATOM      3  C   UNL     1      -2.089   9.412  -9.800  0.00  0.00    +0.000 A 
ATOM      4  C   UNL     1      -2.981   6.781 -10.048  0.00  0.00    +0.000 A 
ATOM      5  C   UNL     1      -2.857   8.838  -8.786  0.00  0.00    +0.000 A 
ATOM      6  C   UNL     1      -3.302   7.522  -8.910  0.00  0.00    +0.000 A 
ATOM      7  H   UNL     1      -2.002   6.748 -11.936  0.00  0.00    +0.000 HD
ATOM      8  H   UNL     1      -1.749  10.439  -9.684  0.00  0.00    +0.000 HD
ATOM      9  H   UNL     1      -3.332   5.758 -10.146  0.00  0.00    +0.000 HD
ATOM     10  H   UNL     1      -3.107   9.414  -7.901  0.00  0.00    +0.000 HD
ATOM     11  H   UNL     1      -3.901   7.075  -8.122  0.00  0.00    +0.000 HD
ENDROOT
BRANCH   1  12
ATOM     12  C   UNL     1      -0.965   9.271 -11.993  0.00  0.00    +0.000 C 
ATOM     13  C   UNL     1      -0.436   8.609 -13.044  0.00  0.00    +0.000 C 
ATOM     14  H   UNL     1      -0.784  10.339 -11.894  0.00  0.00    +0.000 HD
ATOM     15  H   UNL     1      -0.546   7.545 -13.208  0.00  0.00    +0.000 HD
BRANCH  13  17
ATOM     16  O   UNL     1       0.614   8.890 -15.144  0.00  0.00    +0.000 OA
ATOM     17  C   UNL     1       0.367   9.351 -14.036  0.00  0.00    +0.000 C 
ATOM     18  H   UNL     1       0.732  10.343 -13.726  0.00  0.00    +0.000 HD
ENDBRANCH  13  17
ENDBRANCH   1  12
TORSDOF 2
ENDMDL
MODEL 2
REMARK VINA RESULT:    -5.172     17.911     19.183
REMARK INTER + INTRA:          -5.891
REMARK INTER:                  -5.779
REMARK INTRA:                  -0.113
REMARK UNBOUND:                -0.115
REMARK  Name = 637511
REMARK  2 active torsions:
REMARK  status: ('A' for Active; 'I' for Inactive)
REMARK    1  A    between atoms: C_2  and  C_7
REMARK    2  A    between atoms: C_9  and  C_10
REMARK                            x       y       z     vdW  Elec       q    Type
REMARK                         _______ _______ _______ _____ _____    ______ ____
ROOT
ATOM      1  C   UNL     1       7.296   8.409   4.785  0.00  0.00    +0.000 A 
ATOM      2  C   UNL     1       7.692   9.032   3.602  0.00  0.00    +0.000 A 
ATOM      3  C   UNL     1       6.404   7.338   4.743  0.00  0.00    +0.000 A 
ATOM      4  C   UNL     1       7.194   8.586   2.377  0.00  0.00    +0.000 A 
ATOM      5  C   UNL     1       5.907   6.890   3.519  0.00  0.00    +0.000 A 
ATOM      6  C   UNL     1       6.303   7.513   2.336  0.00  0.00    +0.000 A 
ATOM      7  H   UNL     1       8.369   9.881   3.587  0.00  0.00    +0.000 HD
ATOM      8  H   UNL     1       6.085   6.837   5.655  0.00  0.00    +0.000 HD
ATOM      9  H   UNL     1       7.498   9.074   1.456  0.00  0.00    +0.000 HD
ATOM     10  H   UNL     1       5.212   6.055   3.487  0.00  0.00    +0.000 HD
ATOM     11  H   UNL     1       5.915   7.165   1.383  0.00  0.00    +0.000 HD
ENDROOT
BRANCH   1  12
ATOM     12  C   UNL     1       7.814   8.874   6.062  0.00  0.00    +0.000 C 
ATOM     13  C   UNL     1       7.460  10.023   6.677  0.00  0.00    +0.000 C 
ATOM     14  H   UNL     1       8.555   8.230   6.530  0.00  0.00    +0.000 HD
ATOM     15  H   UNL     1       6.751  10.734   6.274  0.00  0.00    +0.000 HD
BRANCH  13  17
ATOM     16  O   UNL     1       8.420   9.514   8.778  0.00  0.00    +0.000 OA
ATOM     17  C   UNL     1       8.081  10.372   7.971  0.00  0.00    +0.000 C 
ATOM     18  H   UNL     1       8.224  11.446   8.172  0.00  0.00    +0.000 HD
ENDBRANCH  13  17
ENDBRANCH   1  12
TORSDOF 2
ENDMDL
MODEL 3
REMARK VINA RESULT:    -5.053     18.223     20.384
REMARK INTER + INTRA:          -5.759
REMARK INTER:                  -5.646
REMARK INTRA:                  -0.113
REMARK UNBOUND:                -0.115
REMARK  Name = 637511
REMARK  2 active torsions:
REMARK  status: ('A' for Active; 'I' for Inactive)
REMARK    1  A    between atoms: C_2  and  C_7
REMARK    2  A    between atoms: C_9  and  C_10
REMARK                            x       y       z     vdW  Elec       q    Type
REMARK                         _______ _______ _______ _____ _____    ______ ____
ROOT
ATOM      1  C   UNL     1      -8.124  11.266   6.786  0.00  0.00    +0.000 A 
ATOM      2  C   UNL     1      -8.079  10.876   5.447  0.00  0.00    +0.000 A 
ATOM      3  C   UNL     1      -7.535  12.466   7.182  0.00  0.00    +0.000 A 
ATOM      4  C   UNL     1      -7.444  11.685   4.505  0.00  0.00    +0.000 A 
ATOM      5  C   UNL     1      -6.900  13.276   6.241  0.00  0.00    +0.000 A 
ATOM      6  C   UNL     1      -6.855  12.886   4.902  0.00  0.00    +0.000 A 
ATOM      7  H   UNL     1      -8.508   9.942   5.096  0.00  0.00    +0.000 HD
ATOM      8  H   UNL     1      -7.562  12.788   8.221  0.00  0.00    +0.000 HD
ATOM      9  H   UNL     1      -7.404  11.381   3.464  0.00  0.00    +0.000 HD
ATOM     10  H   UNL     1      -6.441  14.211   6.550  0.00  0.00    +0.000 HD
ATOM     11  H   UNL     1      -6.360  13.517   4.170  0.00  0.00    +0.000 HD
ENDROOT
BRANCH   1  12
ATOM     12  C   UNL     1      -8.787  10.421   7.768  0.00  0.00    +0.000 C 
ATOM     13  C   UNL     1      -8.241   9.994   8.927  0.00  0.00    +0.000 C 
ATOM     14  H   UNL     1      -9.799  10.115   7.515  0.00  0.00    +0.000 HD
ATOM     15  H   UNL     1      -7.235  10.230   9.247  0.00  0.00    +0.000 HD
BRANCH  13  17
ATOM     16  O   UNL     1      -8.515   8.246  10.497  0.00  0.00    +0.000 OA
ATOM     17  C   UNL     1      -9.034   9.130   9.824  0.00  0.00    +0.000 C 
ATOM     18  H   UNL     1     -10.118   9.323   9.858  0.00  0.00    +0.000 HD
ENDBRANCH  13  17
ENDBRANCH   1  12
TORSDOF 2
ENDMDL
MODEL 4
REMARK VINA RESULT:    -4.999      1.603      2.518
REMARK INTER + INTRA:          -5.698
REMARK INTER:                  -5.585
REMARK INTRA:                  -0.114
REMARK UNBOUND:                -0.115
REMARK  Name = 637511
REMARK  2 active torsions:
REMARK  status: ('A' for Active; 'I' for Inactive)
REMARK    1  A    between atoms: C_2  and  C_7
REMARK    2  A    between atoms: C_9  and  C_10
REMARK                            x       y       z     vdW  Elec       q    Type
REMARK                         _______ _______ _______ _____ _____    ______ ____
ROOT
ATOM      1  C   UNL     1      -3.206   6.987 -10.983  0.00  0.00    +0.000 A 
ATOM      2  C   UNL     1      -3.075   6.818  -9.605  0.00  0.00    +0.000 A 
ATOM      3  C   UNL     1      -4.449   6.815 -11.591  0.00  0.00    +0.000 A 
ATOM      4  C   UNL     1      -4.187   6.477  -8.835  0.00  0.00    +0.000 A 
ATOM      5  C   UNL     1      -5.562   6.475 -10.822  0.00  0.00    +0.000 A 
ATOM      6  C   UNL     1      -5.431   6.306  -9.443  0.00  0.00    +0.000 A 
ATOM      7  H   UNL     1      -2.124   6.922  -9.091  0.00  0.00    +0.000 HD
ATOM      8  H   UNL     1      -4.572   6.945 -12.665  0.00  0.00    +0.000 HD
ATOM      9  H   UNL     1      -4.085   6.341  -7.762  0.00  0.00    +0.000 HD
ATOM     10  H   UNL     1      -6.530   6.342 -11.295  0.00  0.00    +0.000 HD
ATOM     11  H   UNL     1      -6.297   6.040  -8.844  0.00  0.00    +0.000 HD
ENDROOT
BRANCH   1  12
ATOM     12  C   UNL     1      -2.046   7.342 -11.786  0.00  0.00    +0.000 C 
ATOM     13  C   UNL     1      -1.304   8.460 -11.635  0.00  0.00    +0.000 C 
ATOM     14  H   UNL     1      -1.786   6.637 -12.572  0.00  0.00    +0.000 HD
ATOM     15  H   UNL     1      -1.504   9.226 -10.896  0.00  0.00    +0.000 HD
BRANCH  13  17
ATOM     16  O   UNL     1      -0.232   8.509 -13.743  0.00  0.00    +0.000 OA
ATOM     17  C   UNL     1      -0.156   8.694 -12.534  0.00  0.00    +0.000 C 
ATOM     18  H   UNL     1       0.774   9.046 -12.059  0.00  0.00    +0.000 HD
ENDBRANCH  13  17
ENDBRANCH   1  12
TORSDOF 2
ENDMDL
MODEL 5
REMARK VINA RESULT:    -4.908     26.857     27.582
REMARK INTER + INTRA:          -5.596
REMARK INTER:                  -5.480
REMARK INTRA:                  -0.117
REMARK UNBOUND:                -0.115
REMARK  Name = 637511
REMARK  2 active torsions:
REMARK  status: ('A' for Active; 'I' for Inactive)
REMARK    1  A    between atoms: C_2  and  C_7
REMARK    2  A    between atoms: C_9  and  C_10
REMARK                            x       y       z     vdW  Elec       q    Type
REMARK                         _______ _______ _______ _____ _____    ______ ____
ROOT
ATOM      1  C   UNL     1     -20.778  -2.641   4.799  0.00  0.00    +0.000 A 
ATOM      2  C   UNL     1     -20.781  -3.089   6.120  0.00  0.00    +0.000 A 
ATOM      3  C   UNL     1     -20.716  -1.275   4.526  0.00  0.00    +0.000 A 
ATOM      4  C   UNL     1     -20.724  -2.170   7.168  0.00  0.00    +0.000 A 
ATOM      5  C   UNL     1     -20.658  -0.356   5.574  0.00  0.00    +0.000 A 
ATOM      6  C   UNL     1     -20.661  -0.803   6.895  0.00  0.00    +0.000 A 
ATOM      7  H   UNL     1     -20.848  -4.141   6.380  0.00  0.00    +0.000 HD
ATOM      8  H   UNL     1     -20.710  -0.906   3.503  0.00  0.00    +0.000 HD
ATOM      9  H   UNL     1     -20.731  -2.518   8.197  0.00  0.00    +0.000 HD
ATOM     10  H   UNL     1     -20.609   0.708   5.362  0.00  0.00    +0.000 HD
ATOM     11  H   UNL     1     -20.616  -0.088   7.711  0.00  0.00    +0.000 HD
ENDROOT
BRANCH   1  12
ATOM     12  C   UNL     1     -20.838  -3.599   3.706  0.00  0.00    +0.000 C 
ATOM     13  C   UNL     1     -20.255  -4.817   3.701  0.00  0.00    +0.000 C 
ATOM     14  H   UNL     1     -21.396  -3.276   2.830  0.00  0.00    +0.000 HD
ATOM     15  H   UNL     1     -19.664  -5.210   4.518  0.00  0.00    +0.000 HD
BRANCH  13  17
ATOM     16  O   UNL     1     -19.541  -6.506   2.207  0.00  0.00    +0.000 OA
ATOM     17  C   UNL     1     -20.394  -5.681   2.511  0.00  0.00    +0.000 C 
ATOM     18  H   UNL     1     -21.309  -5.545   1.912  0.00  0.00    +0.000 HD
ENDBRANCH  13  17
ENDBRANCH   1  12
TORSDOF 2
ENDMDL
MODEL 6
REMARK VINA RESULT:    -4.727     27.049     28.162
REMARK INTER + INTRA:          -5.394
REMARK INTER:                  -5.277
REMARK INTRA:                  -0.117
REMARK UNBOUND:                -0.115
REMARK  Name = 637511
REMARK  2 active torsions:
REMARK  status: ('A' for Active; 'I' for Inactive)
REMARK    1  A    between atoms: C_2  and  C_7
REMARK    2  A    between atoms: C_9  and  C_10
REMARK                            x       y       z     vdW  Elec       q    Type
REMARK                         _______ _______ _______ _____ _____    ______ ____
ROOT
ATOM      1  C   UNL     1     -20.347  -3.694   5.031  0.00  0.00    +0.000 A 
ATOM      2  C   UNL     1     -20.776  -3.179   3.808  0.00  0.00    +0.000 A 
ATOM      3  C   UNL     1     -19.506  -4.806   5.062  0.00  0.00    +0.000 A 
ATOM      4  C   UNL     1     -20.366  -3.776   2.616  0.00  0.00    +0.000 A 
ATOM      5  C   UNL     1     -19.095  -5.404   3.870  0.00  0.00    +0.000 A 
ATOM      6  C   UNL     1     -19.524  -4.888   2.647  0.00  0.00    +0.000 A 
ATOM      7  H   UNL     1     -21.446  -2.326   3.736  0.00  0.00    +0.000 HD
ATOM      8  H   UNL     1     -19.159  -5.221   6.006  0.00  0.00    +0.000 HD
ATOM      9  H   UNL     1     -20.703  -3.378   1.664  0.00  0.00    +0.000 HD
ATOM     10  H   UNL     1     -18.440  -6.270   3.895  0.00  0.00    +0.000 HD
ATOM     11  H   UNL     1     -19.204  -5.354   1.720  0.00  0.00    +0.000 HD
ENDROOT
BRANCH   1  12
ATOM     12  C   UNL     1     -20.775  -3.071   6.274  0.00  0.00    +0.000 C 
ATOM     13  C   UNL     1     -20.698  -1.752   6.554  0.00  0.00    +0.000 C 
ATOM     14  H   UNL     1     -21.174  -3.749   7.025  0.00  0.00    +0.000 HD
ATOM     15  H   UNL     1     -20.294  -1.011   5.877  0.00  0.00    +0.000 HD
BRANCH  13  17
ATOM     16  O   UNL     1     -21.932  -1.915   8.566  0.00  0.00    +0.000 OA
ATOM     17  C   UNL     1     -21.165  -1.263   7.868  0.00  0.00    +0.000 C 
ATOM     18  H   UNL     1     -20.783  -0.280   8.187  0.00  0.00    +0.000 HD
ENDBRANCH  13  17
ENDBRANCH   1  12
TORSDOF 2
ENDMDL
MODEL 7
REMARK VINA RESULT:    -4.656     12.392     13.453
REMARK INTER + INTRA:          -5.315
REMARK INTER:                  -5.191
REMARK INTRA:                  -0.124
REMARK UNBOUND:                -0.115
REMARK  Name = 637511
REMARK  2 active torsions:
REMARK  status: ('A' for Active; 'I' for Inactive)
REMARK    1  A    between atoms: C_2  and  C_7
REMARK    2  A    between atoms: C_9  and  C_10
REMARK                            x       y       z     vdW  Elec       q    Type
REMARK                         _______ _______ _______ _____ _____    ______ ____
ROOT
ATOM      1  C   UNL     1       5.486  -1.541 -16.088  0.00  0.00    +0.000 A 
ATOM      2  C   UNL     1       5.102  -0.695 -15.047  0.00  0.00    +0.000 A 
ATOM      3  C   UNL     1       5.127  -2.888 -16.060  0.00  0.00    +0.000 A 
ATOM      4  C   UNL     1       4.359  -1.197 -13.979  0.00  0.00    +0.000 A 
ATOM      5  C   UNL     1       4.383  -3.391 -14.993  0.00  0.00    +0.000 A 
ATOM      6  C   UNL     1       3.999  -2.545 -13.952  0.00  0.00    +0.000 A 
ATOM      7  H   UNL     1       5.375   0.355 -15.017  0.00  0.00    +0.000 HD
ATOM      8  H   UNL     1       5.415  -3.562 -16.864  0.00  0.00    +0.000 HD
ATOM      9  H   UNL     1       4.063  -0.541 -13.166  0.00  0.00    +0.000 HD
ATOM     10  H   UNL     1       4.103  -4.439 -14.971  0.00  0.00    +0.000 HD
ATOM     11  H   UNL     1       3.421  -2.937 -13.120  0.00  0.00    +0.000 HD
ENDROOT
BRANCH   1  12
ATOM     12  C   UNL     1       6.261  -1.017 -17.203  0.00  0.00    +0.000 C 
ATOM     13  C   UNL     1       6.610  -1.712 -18.307  0.00  0.00    +0.000 C 
ATOM     14  H   UNL     1       6.581   0.018 -17.105  0.00  0.00    +0.000 HD
ATOM     15  H   UNL     1       6.355  -2.750 -18.476  0.00  0.00    +0.000 HD
BRANCH  13  17
ATOM     16  O   UNL     1       7.340   0.158 -19.558  0.00  0.00    +0.000 OA
ATOM     17  C   UNL     1       7.410  -1.048 -19.356  0.00  0.00    +0.000 C 
ATOM     18  H   UNL     1       8.075  -1.698 -19.948  0.00  0.00    +0.000 HD
ENDBRANCH  13  17
ENDBRANCH   1  12
TORSDOF 2
ENDMDL
MODEL 8
REMARK VINA RESULT:    -4.641      8.955      9.214
REMARK INTER + INTRA:          -5.298
REMARK INTER:                  -5.187
REMARK INTRA:                  -0.111
REMARK UNBOUND:                -0.115
REMARK  Name = 637511
REMARK  2 active torsions:
REMARK  status: ('A' for Active; 'I' for Inactive)
REMARK    1  A    between atoms: C_2  and  C_7
REMARK    2  A    between atoms: C_9  and  C_10
REMARK                            x       y       z     vdW  Elec       q    Type
REMARK                         _______ _______ _______ _____ _____    ______ ____
ROOT
ATOM      1  C   UNL     1      -1.702  -0.373 -11.522  0.00  0.00    +0.000 A 
ATOM      2  C   UNL     1      -1.955  -0.493 -10.156  0.00  0.00    +0.000 A 
ATOM      3  C   UNL     1      -2.762  -0.358 -12.429  0.00  0.00    +0.000 A 
ATOM      4  C   UNL     1      -3.268  -0.598  -9.696  0.00  0.00    +0.000 A 
ATOM      5  C   UNL     1      -4.075  -0.462 -11.970  0.00  0.00    +0.000 A 
ATOM      6  C   UNL     1      -4.328  -0.582 -10.603  0.00  0.00    +0.000 A 
ATOM      7  H   UNL     1      -1.161  -0.528  -9.416  0.00  0.00    +0.000 HD
ATOM      8  H   UNL     1      -2.584  -0.262 -13.498  0.00  0.00    +0.000 HD
ATOM      9  H   UNL     1      -3.466  -0.696  -8.633  0.00  0.00    +0.000 HD
ATOM     10  H   UNL     1      -4.900  -0.449 -12.676  0.00  0.00    +0.000 HD
ATOM     11  H   UNL     1      -5.350  -0.664 -10.246  0.00  0.00    +0.000 HD
ENDROOT
BRANCH   1  12
ATOM     12  C   UNL     1      -0.333  -0.263 -12.002  0.00  0.00    +0.000 C 
ATOM     13  C   UNL     1       0.310  -1.185 -12.750  0.00  0.00    +0.000 C 
ATOM     14  H   UNL     1       0.196   0.641 -11.707  0.00  0.00    +0.000 HD
ATOM     15  H   UNL     1      -0.130  -2.121 -13.068  0.00  0.00    +0.000 HD
BRANCH  13  17
ATOM     16  O   UNL     1       2.014  -0.015 -13.900  0.00  0.00    +0.000 OA
ATOM     17  C   UNL     1       1.709  -0.940 -13.157  0.00  0.00    +0.000 C 
ATOM     18  H   UNL     1       2.464  -1.635 -12.753  0.00  0.00    +0.000 HD
ENDBRANCH  13  17
ENDBRANCH   1  12
TORSDOF 2
ENDMDL
MODEL 9
REMARK VINA RESULT:    -4.601     25.981     26.846
REMARK INTER + INTRA:          -5.253
REMARK INTER:                  -5.133
REMARK INTRA:                  -0.120
REMARK UNBOUND:                -0.115
REMARK  Name = 637511
REMARK  2 active torsions:
REMARK  status: ('A' for Active; 'I' for Inactive)
REMARK    1  A    between atoms: C_2  and  C_7
REMARK    2  A    between atoms: C_9  and  C_10
REMARK                            x       y       z     vdW  Elec       q    Type
REMARK                         _______ _______ _______ _____ _____    ______ ____
ROOT
ATOM      1  C   UNL     1      13.241 -10.048   0.301  0.00  0.00    +0.000 A 
ATOM      2  C   UNL     1      13.630  -8.932   1.040  0.00  0.00    +0.000 A 
ATOM      3  C   UNL     1      13.636 -10.175  -1.030  0.00  0.00    +0.000 A 
ATOM      4  C   UNL     1      14.415  -7.942   0.448  0.00  0.00    +0.000 A 
ATOM      5  C   UNL     1      14.422  -9.186  -1.623  0.00  0.00    +0.000 A 
ATOM      6  C   UNL     1      14.811  -8.070  -0.883  0.00  0.00    +0.000 A 
ATOM      7  H   UNL     1      13.330  -8.781   2.073  0.00  0.00    +0.000 HD
ATOM      8  H   UNL     1      13.344 -11.040  -1.622  0.00  0.00    +0.000 HD
ATOM      9  H   UNL     1      14.715  -7.070   1.022  0.00  0.00    +0.000 HD
ATOM     10  H   UNL     1      14.730  -9.286  -2.659  0.00  0.00    +0.000 HD
ATOM     11  H   UNL     1      15.422  -7.299  -1.345  0.00  0.00    +0.000 HD
ENDROOT
BRANCH   1  12
ATOM     12  C   UNL     1      12.422 -11.081   0.919  0.00  0.00    +0.000 C 
ATOM     13  C   UNL     1      11.466 -10.868   1.847  0.00  0.00    +0.000 C 
ATOM     14  H   UNL     1      12.629 -12.098   0.595  0.00  0.00    +0.000 HD
ATOM     15  H   UNL     1      11.210  -9.894   2.244  0.00  0.00    +0.000 HD
BRANCH  13  17
ATOM     16  O   UNL     1      10.408 -12.978   1.698  0.00  0.00    +0.000 OA
ATOM     17  C   UNL     1      10.719 -12.019   2.394  0.00  0.00    +0.000 C 
ATOM     18  H   UNL     1      10.459 -11.970   3.464  0.00  0.00    +0.000 HD
ENDBRANCH  13  17
ENDBRANCH   1  12
TORSDOF 2
ENDMDL
MODEL 10
REMARK VINA RESULT:    -4.493     10.853     12.737
REMARK INTER + INTRA:          -5.133
REMARK INTER:                  -5.018
REMARK INTRA:                  -0.115
REMARK UNBOUND:                -0.115
REMARK  Name = 637511
REMARK  2 active torsions:
REMARK  status: ('A' for Active; 'I' for Inactive)
REMARK    1  A    between atoms: C_2  and  C_7
REMARK    2  A    between atoms: C_9  and  C_10
REMARK                            x       y       z     vdW  Elec       q    Type
REMARK                         _______ _______ _______ _____ _____    ______ ____
ROOT
ATOM      1  C   UNL     1     -10.187   3.797  -5.288  0.00  0.00    +0.000 A 
ATOM      2  C   UNL     1     -10.554   5.102  -5.617  0.00  0.00    +0.000 A 
ATOM      3  C   UNL     1      -8.917   3.539  -4.775  0.00  0.00    +0.000 A 
ATOM      4  C   UNL     1      -9.650   6.149  -5.434  0.00  0.00    +0.000 A 
ATOM      5  C   UNL     1      -8.012   4.585  -4.591  0.00  0.00    +0.000 A 
ATOM      6  C   UNL     1      -8.379   5.890  -4.920  0.00  0.00    +0.000 A 
ATOM      7  H   UNL     1     -11.525   5.347  -6.037  0.00  0.00    +0.000 HD
ATOM      8  H   UNL     1      -8.613   2.529  -4.510  0.00  0.00    +0.000 HD
ATOM      9  H   UNL     1      -9.933   7.164  -5.695  0.00  0.00    +0.000 HD
ATOM     10  H   UNL     1      -7.023   4.384  -4.191  0.00  0.00    +0.000 HD
ATOM     11  H   UNL     1      -7.675   6.704  -4.777  0.00  0.00    +0.000 HD
ENDROOT
BRANCH   1  12
ATOM     12  C   UNL     1     -11.130   2.706  -5.479  0.00  0.00    +0.000 C 
ATOM     13  C   UNL     1     -12.401   2.682  -5.022  0.00  0.00    +0.000 C 
ATOM     14  H   UNL     1     -10.749   1.848  -6.028  0.00  0.00    +0.000 HD
ATOM     15  H   UNL     1     -12.854   3.479  -4.448  0.00  0.00    +0.000 HD
BRANCH  13  17
ATOM     16  O   UNL     1     -12.870   0.363  -5.004  0.00  0.00    +0.000 OA
ATOM     17  C   UNL     1     -13.242   1.496  -5.285  0.00  0.00    +0.000 C 
ATOM     18  H   UNL     1     -14.224   1.687  -5.747  0.00  0.00    +0.000 HD
ENDBRANCH  13  17
ENDBRANCH   1  12
TORSDOF 2
ENDMDL
