MODEL 1
REMARK VINA RESULT:    -6.418      0.000      0.000
REMARK INTER + INTRA:          -6.418
REMARK INTER:                  -6.418
REMARK INTRA:                   0.000
REMARK UNBOUND:                 0.000
REMARK  Name = 323
REMARK  0 active torsions:
REMARK  status: ('A' for Active; 'I' for Inactive)
REMARK                            x       y       z     vdW  Elec       q    Type
REMARK                         _______ _______ _______ _____ _____    ______ ____
ROOT
ATOM      1  O   UNL     1      -1.398   7.739 -12.066  0.00  0.00    +0.000 OA
ATOM      2  O   UNL     1      -0.097   8.735 -13.666  0.00  0.00    +0.000 OA
ATOM      3  C   UNL     1      -2.032   9.015 -10.092  0.00  0.00    +0.000 A 
ATOM      4  C   UNL     1      -2.069   7.834 -10.829  0.00  0.00    +0.000 A 
ATOM      5  C   UNL     1      -2.709   9.071  -8.872  0.00  0.00    +0.000 A 
ATOM      6  C   UNL     1      -1.290  10.147 -10.620  0.00  0.00    +0.000 A 
ATOM      7  C   UNL     1      -2.762   6.711 -10.381  0.00  0.00    +0.000 A 
ATOM      8  C   UNL     1      -3.408   7.952  -8.409  0.00  0.00    +0.000 A 
ATOM      9  C   UNL     1      -3.434   6.775  -9.162  0.00  0.00    +0.000 A 
ATOM     10  C   UNL     1      -0.658  10.049 -11.792  0.00  0.00    +0.000 A 
ATOM     11  C   UNL     1      -0.682   8.810 -12.592  0.00  0.00    +0.000 A 
ATOM     12  H   UNL     1      -2.702   9.977  -8.271  0.00  0.00    +0.000 HD
ATOM     13  H   UNL     1      -1.259  11.069 -10.050  0.00  0.00    +0.000 HD
ATOM     14  H   UNL     1      -2.781   5.798 -10.967  0.00  0.00    +0.000 HD
ATOM     15  H   UNL     1      -3.934   7.998  -7.460  0.00  0.00    +0.000 HD
ATOM     16  H   UNL     1      -3.980   5.911  -8.796  0.00  0.00    +0.000 HD
ATOM     17  H   UNL     1      -0.101  10.890 -12.192  0.00  0.00    +0.000 HD
ENDROOT
TORSDOF 0
ENDMDL
MODEL 2
REMARK VINA RESULT:    -5.506      9.561     10.500
REMARK INTER + INTRA:          -5.506
REMARK INTER:                  -5.506
REMARK INTRA:                   0.000
REMARK UNBOUND:                 0.000
REMARK  Name = 323
REMARK  0 active torsions:
REMARK  status: ('A' for Active; 'I' for Inactive)
REMARK                            x       y       z     vdW  Elec       q    Type
REMARK                         _______ _______ _______ _____ _____    ______ ____
ROOT
ATOM      1  O   UNL     1      -9.235   7.370  -5.324  0.00  0.00    +0.000 OA
ATOM      2  O   UNL     1     -10.150   9.421  -5.772  0.00  0.00    +0.000 OA
ATOM      3  C   UNL     1     -10.654   5.394  -5.425  0.00  0.00    +0.000 A 
ATOM      4  C   UNL     1      -9.408   5.976  -5.203  0.00  0.00    +0.000 A 
ATOM      5  C   UNL     1     -10.785   4.010  -5.296  0.00  0.00    +0.000 A 
ATOM      6  C   UNL     1     -11.773   6.250  -5.782  0.00  0.00    +0.000 A 
ATOM      7  C   UNL     1      -8.294   5.213  -4.858  0.00  0.00    +0.000 A 
ATOM      8  C   UNL     1      -9.677   3.232  -4.950  0.00  0.00    +0.000 A 
ATOM      9  C   UNL     1      -8.434   3.832  -4.732  0.00  0.00    +0.000 A 
ATOM     10  C   UNL     1     -11.601   7.569  -5.894  0.00  0.00    +0.000 A 
ATOM     11  C   UNL     1     -10.292   8.209  -5.665  0.00  0.00    +0.000 A 
ATOM     12  H   UNL     1     -11.743   3.523  -5.463  0.00  0.00    +0.000 HD
ATOM     13  H   UNL     1     -12.745   5.801  -5.956  0.00  0.00    +0.000 HD
ATOM     14  H   UNL     1      -7.329   5.681  -4.688  0.00  0.00    +0.000 HD
ATOM     15  H   UNL     1      -9.782   2.155  -4.851  0.00  0.00    +0.000 HD
ATOM     16  H   UNL     1      -7.577   3.222  -4.463  0.00  0.00    +0.000 HD
ATOM     17  H   UNL     1     -12.432   8.214  -6.160  0.00  0.00    +0.000 HD
ENDROOT
TORSDOF 0
ENDMDL
MODEL 3
REMARK VINA RESULT:    -5.299      2.992      4.829
REMARK INTER + INTRA:          -5.299
REMARK INTER:                  -5.299
REMARK INTRA:                   0.000
REMARK UNBOUND:                 0.000
REMARK  Name = 323
REMARK  0 active torsions:
REMARK  status: ('A' for Active; 'I' for Inactive)
REMARK                            x       y       z     vdW  Elec       q    Type
REMARK                         _______ _______ _______ _____ _____    ______ ____
ROOT
ATOM      1  O   UNL     1      -5.418   6.382 -10.950  0.00  0.00    +0.000 OA
ATOM      2  O   UNL     1      -6.737   6.016  -9.113  0.00  0.00    +0.000 OA
ATOM      3  C   UNL     1      -3.041   6.800 -10.635  0.00  0.00    +0.000 A 
ATOM      4  C   UNL     1      -4.139   6.653 -11.478  0.00  0.00    +0.000 A 
ATOM      5  C   UNL     1      -1.790   7.068 -11.196  0.00  0.00    +0.000 A 
ATOM      6  C   UNL     1      -3.236   6.669  -9.201  0.00  0.00    +0.000 A 
ATOM      7  C   UNL     1      -4.021   6.766 -12.862  0.00  0.00    +0.000 A 
ATOM      8  C   UNL     1      -1.657   7.184 -12.582  0.00  0.00    +0.000 A 
ATOM      9  C   UNL     1      -2.770   7.034 -13.413  0.00  0.00    +0.000 A 
ATOM     10  C   UNL     1      -4.450   6.413  -8.709  0.00  0.00    +0.000 A 
ATOM     11  C   UNL     1      -5.629   6.253  -9.580  0.00  0.00    +0.000 A 
ATOM     12  H   UNL     1      -0.911   7.188 -10.567  0.00  0.00    +0.000 HD
ATOM     13  H   UNL     1      -2.383   6.783  -8.541  0.00  0.00    +0.000 HD
ATOM     14  H   UNL     1      -4.888   6.649 -13.506  0.00  0.00    +0.000 HD
ATOM     15  H   UNL     1      -0.683   7.393 -13.016  0.00  0.00    +0.000 HD
ATOM     16  H   UNL     1      -2.659   7.126 -14.490  0.00  0.00    +0.000 HD
ATOM     17  H   UNL     1      -4.603   6.315  -7.639  0.00  0.00    +0.000 HD
ENDROOT
TORSDOF 0
ENDMDL
MODEL 4
REMARK VINA RESULT:    -5.284     17.823     19.857
REMARK INTER + INTRA:          -5.284
REMARK INTER:                  -5.284
REMARK INTRA:                   0.000
REMARK UNBOUND:                 0.000
REMARK  Name = 323
REMARK  0 active torsions:
REMARK  status: ('A' for Active; 'I' for Inactive)
REMARK                            x       y       z     vdW  Elec       q    Type
REMARK                         _______ _______ _______ _____ _____    ______ ____
ROOT
ATOM      1  O   UNL     1      -8.210  12.012   8.732  0.00  0.00    +0.000 OA
ATOM      2  O   UNL     1      -9.237  10.958  10.486  0.00  0.00    +0.000 OA
ATOM      3  C   UNL     1      -8.290  10.988   6.525  0.00  0.00    +0.000 A 
ATOM      4  C   UNL     1      -7.881  12.025   7.361  0.00  0.00    +0.000 A 
ATOM      5  C   UNL     1      -7.945  11.036   5.172  0.00  0.00    +0.000 A 
ATOM      6  C   UNL     1      -9.061   9.894   7.091  0.00  0.00    +0.000 A 
ATOM      7  C   UNL     1      -7.140  13.103   6.882  0.00  0.00    +0.000 A 
ATOM      8  C   UNL     1      -7.202  12.111   4.678  0.00  0.00    +0.000 A 
ATOM      9  C   UNL     1      -6.800  13.143   5.531  0.00  0.00    +0.000 A 
ATOM     10  C   UNL     1      -9.368   9.891   8.390  0.00  0.00    +0.000 A 
ATOM     11  C   UNL     1      -8.947  10.976   9.296  0.00  0.00    +0.000 A 
ATOM     12  H   UNL     1      -8.249  10.244   4.491  0.00  0.00    +0.000 HD
ATOM     13  H   UNL     1      -9.381   9.085   6.443  0.00  0.00    +0.000 HD
ATOM     14  H   UNL     1      -6.829  13.903   7.547  0.00  0.00    +0.000 HD
ATOM     15  H   UNL     1      -6.935  12.146   3.626  0.00  0.00    +0.000 HD
ATOM     16  H   UNL     1      -6.223  13.975   5.141  0.00  0.00    +0.000 HD
ATOM     17  H   UNL     1      -9.942   9.076   8.820  0.00  0.00    +0.000 HD
ENDROOT
TORSDOF 0
ENDMDL
MODEL 5
REMARK VINA RESULT:    -5.268     26.331     27.187
REMARK INTER + INTRA:          -5.268
REMARK INTER:                  -5.268
REMARK INTRA:                   0.000
REMARK UNBOUND:                 0.000
REMARK  Name = 323
REMARK  0 active torsions:
REMARK  status: ('A' for Active; 'I' for Inactive)
REMARK                            x       y       z     vdW  Elec       q    Type
REMARK                         _______ _______ _______ _____ _____    ______ ____
ROOT
ATOM      1  O   UNL     1     -20.361  -3.534   6.252  0.00  0.00    +0.000 OA
ATOM      2  O   UNL     1     -21.167  -1.960   7.707  0.00  0.00    +0.000 OA
ATOM      3  C   UNL     1     -20.603  -3.167   3.858  0.00  0.00    +0.000 A 
ATOM      4  C   UNL     1     -20.164  -3.953   4.920  0.00  0.00    +0.000 A 
ATOM      5  C   UNL     1     -20.390  -3.615   2.553  0.00  0.00    +0.000 A 
ATOM      6  C   UNL     1     -21.267  -1.906   4.147  0.00  0.00    +0.000 A 
ATOM      7  C   UNL     1     -19.521  -5.172   4.713  0.00  0.00    +0.000 A 
ATOM      8  C   UNL     1     -19.747  -4.835   2.330  0.00  0.00    +0.000 A 
ATOM      9  C   UNL     1     -19.313  -5.612   3.407  0.00  0.00    +0.000 A 
ATOM     10  C   UNL     1     -21.449  -1.517   5.411  0.00  0.00    +0.000 A 
ATOM     11  C   UNL     1     -20.994  -2.332   6.553  0.00  0.00    +0.000 A 
ATOM     12  H   UNL     1     -20.719  -3.026   1.700  0.00  0.00    +0.000 HD
ATOM     13  H   UNL     1     -21.610  -1.291   3.322  0.00  0.00    +0.000 HD
ATOM     14  H   UNL     1     -19.185  -5.774   5.552  0.00  0.00    +0.000 HD
ATOM     15  H   UNL     1     -19.582  -5.182   1.313  0.00  0.00    +0.000 HD
ATOM     16  H   UNL     1     -18.814  -6.559   3.226  0.00  0.00    +0.000 HD
ATOM     17  H   UNL     1     -21.944  -0.578   5.634  0.00  0.00    +0.000 HD
ENDROOT
TORSDOF 0
ENDMDL
MODEL 6
REMARK VINA RESULT:    -5.205     32.719     34.662
REMARK INTER + INTRA:          -5.205
REMARK INTER:                  -5.205
REMARK INTRA:                   0.000
REMARK UNBOUND:                 0.000
REMARK  Name = 323
REMARK  0 active torsions:
REMARK  status: ('A' for Active; 'I' for Inactive)
REMARK                            x       y       z     vdW  Elec       q    Type
REMARK                         _______ _______ _______ _____ _____    ______ ____
ROOT
ATOM      1  O   UNL     1     -10.051 -10.905  15.014  0.00  0.00    +0.000 OA
ATOM      2  O   UNL     1      -8.565 -10.427  13.339  0.00  0.00    +0.000 OA
ATOM      3  C   UNL     1      -9.281 -12.150  16.960  0.00  0.00    +0.000 A 
ATOM      4  C   UNL     1     -10.300 -11.501  16.268  0.00  0.00    +0.000 A 
ATOM      5  C   UNL     1      -9.566 -12.728  18.199  0.00  0.00    +0.000 A 
ATOM      6  C   UNL     1      -7.955 -12.202  16.367  0.00  0.00    +0.000 A 
ATOM      7  C   UNL     1     -11.593 -11.415  16.780  0.00  0.00    +0.000 A 
ATOM      8  C   UNL     1     -10.859 -12.649  18.725  0.00  0.00    +0.000 A 
ATOM      9  C   UNL     1     -11.870 -11.994  18.017  0.00  0.00    +0.000 A 
ATOM     10  C   UNL     1      -7.727 -11.636  15.179  0.00  0.00    +0.000 A 
ATOM     11  C   UNL     1      -8.790 -10.943  14.428  0.00  0.00    +0.000 A 
ATOM     12  H   UNL     1      -8.794 -13.242  18.766  0.00  0.00    +0.000 HD
ATOM     13  H   UNL     1      -7.158 -12.707  16.902  0.00  0.00    +0.000 HD
ATOM     14  H   UNL     1     -12.378 -10.905  16.229  0.00  0.00    +0.000 HD
ATOM     15  H   UNL     1     -11.079 -13.100  19.688  0.00  0.00    +0.000 HD
ATOM     16  H   UNL     1     -12.872 -11.937  18.432  0.00  0.00    +0.000 HD
ATOM     17  H   UNL     1      -6.740 -11.672  14.730  0.00  0.00    +0.000 HD
ENDROOT
TORSDOF 0
ENDMDL
MODEL 7
REMARK VINA RESULT:    -5.078     17.268     19.054
REMARK INTER + INTRA:          -5.078
REMARK INTER:                  -5.078
REMARK INTRA:                   0.000
REMARK UNBOUND:                 0.000
REMARK  Name = 323
REMARK  0 active torsions:
REMARK  status: ('A' for Active; 'I' for Inactive)
REMARK                            x       y       z     vdW  Elec       q    Type
REMARK                         _______ _______ _______ _____ _____    ______ ____
ROOT
ATOM      1  O   UNL     1      -7.041  13.097   6.955  0.00  0.00    +0.000 OA
ATOM      2  O   UNL     1      -6.008  14.075   5.161  0.00  0.00    +0.000 OA
ATOM      3  C   UNL     1      -8.305  11.043   6.619  0.00  0.00    +0.000 A 
ATOM      4  C   UNL     1      -7.835  12.047   7.462  0.00  0.00    +0.000 A 
ATOM      5  C   UNL     1      -9.089  10.021   7.157  0.00  0.00    +0.000 A 
ATOM      6  C   UNL     1      -7.961  11.095   5.208  0.00  0.00    +0.000 A 
ATOM      7  C   UNL     1      -8.128  12.057   8.824  0.00  0.00    +0.000 A 
ATOM      8  C   UNL     1      -9.391  10.017   8.522  0.00  0.00    +0.000 A 
ATOM      9  C   UNL     1      -8.912  11.033   9.353  0.00  0.00    +0.000 A 
ATOM     10  C   UNL     1      -7.208  12.093   4.736  0.00  0.00    +0.000 A 
ATOM     11  C   UNL     1      -6.699  13.167   5.608  0.00  0.00    +0.000 A 
ATOM     12  H   UNL     1      -9.471   9.221   6.528  0.00  0.00    +0.000 HD
ATOM     13  H   UNL     1      -8.324  10.315   4.547  0.00  0.00    +0.000 HD
ATOM     14  H   UNL     1      -7.755  12.847   9.468  0.00  0.00    +0.000 HD
ATOM     15  H   UNL     1     -10.001   9.221   8.939  0.00  0.00    +0.000 HD
ATOM     16  H   UNL     1      -9.150  11.024  10.413  0.00  0.00    +0.000 HD
ATOM     17  H   UNL     1      -6.948  12.138   3.684  0.00  0.00    +0.000 HD
ENDROOT
TORSDOF 0
ENDMDL
MODEL 8
REMARK VINA RESULT:    -5.000     16.969     18.569
REMARK INTER + INTRA:          -5.000
REMARK INTER:                  -5.000
REMARK INTRA:                   0.000
REMARK UNBOUND:                 0.000
REMARK  Name = 323
REMARK  0 active torsions:
REMARK  status: ('A' for Active; 'I' for Inactive)
REMARK                            x       y       z     vdW  Elec       q    Type
REMARK                         _______ _______ _______ _____ _____    ______ ____
ROOT
ATOM      1  O   UNL     1     -10.372  12.305   4.970  0.00  0.00    +0.000 OA
ATOM      2  O   UNL     1      -9.589  13.652   3.292  0.00  0.00    +0.000 OA
ATOM      3  C   UNL     1      -8.805  10.889   6.180  0.00  0.00    +0.000 A 
ATOM      4  C   UNL     1     -10.102  11.349   5.971  0.00  0.00    +0.000 A 
ATOM      5  C   UNL     1      -8.577   9.941   7.180  0.00  0.00    +0.000 A 
ATOM      6  C   UNL     1      -7.733  11.413   5.349  0.00  0.00    +0.000 A 
ATOM      7  C   UNL     1     -11.174  10.888   6.732  0.00  0.00    +0.000 A 
ATOM      8  C   UNL     1      -9.643   9.470   7.952  0.00  0.00    +0.000 A 
ATOM      9  C   UNL     1     -10.939   9.942   7.728  0.00  0.00    +0.000 A 
ATOM     10  C   UNL     1      -7.998  12.318   4.404  0.00  0.00    +0.000 A 
ATOM     11  C   UNL     1      -9.363  12.820   4.163  0.00  0.00    +0.000 A 
ATOM     12  H   UNL     1      -7.576   9.562   7.371  0.00  0.00    +0.000 HD
ATOM     13  H   UNL     1      -6.721  11.058   5.509  0.00  0.00    +0.000 HD
ATOM     14  H   UNL     1     -12.181  11.256   6.557  0.00  0.00    +0.000 HD
ATOM     15  H   UNL     1      -9.463   8.733   8.729  0.00  0.00    +0.000 HD
ATOM     16  H   UNL     1     -11.762   9.572   8.331  0.00  0.00    +0.000 HD
ATOM     17  H   UNL     1      -7.203  12.713   3.779  0.00  0.00    +0.000 HD
ENDROOT
TORSDOF 0
ENDMDL
MODEL 9
REMARK VINA RESULT:    -4.959     26.668     27.342
REMARK INTER + INTRA:          -4.959
REMARK INTER:                  -4.959
REMARK INTRA:                   0.000
REMARK UNBOUND:                 0.000
REMARK  Name = 323
REMARK  0 active torsions:
REMARK  status: ('A' for Active; 'I' for Inactive)
REMARK                            x       y       z     vdW  Elec       q    Type
REMARK                         _______ _______ _______ _____ _____    ______ ____
ROOT
ATOM      1  O   UNL     1      14.839  -4.270   7.390  0.00  0.00    +0.000 OA
ATOM      2  O   UNL     1      14.821  -4.780   5.158  0.00  0.00    +0.000 OA
ATOM      3  C   UNL     1      12.878  -3.221   8.380  0.00  0.00    +0.000 A 
ATOM      4  C   UNL     1      14.167  -3.731   8.507  0.00  0.00    +0.000 A 
ATOM      5  C   UNL     1      12.246  -2.695   9.509  0.00  0.00    +0.000 A 
ATOM      6  C   UNL     1      12.236  -3.254   7.077  0.00  0.00    +0.000 A 
ATOM      7  C   UNL     1      14.839  -3.729   9.728  0.00  0.00    +0.000 A 
ATOM      8  C   UNL     1      12.907  -2.687  10.740  0.00  0.00    +0.000 A 
ATOM      9  C   UNL     1      14.201  -3.203  10.849  0.00  0.00    +0.000 A 
ATOM     10  C   UNL     1      12.879  -3.766   6.024  0.00  0.00    +0.000 A 
ATOM     11  C   UNL     1      14.245  -4.313   6.133  0.00  0.00    +0.000 A 
ATOM     12  H   UNL     1      11.239  -2.289   9.446  0.00  0.00    +0.000 HD
ATOM     13  H   UNL     1      11.232  -2.858   6.973  0.00  0.00    +0.000 HD
ATOM     14  H   UNL     1      15.845  -4.131   9.810  0.00  0.00    +0.000 HD
ATOM     15  H   UNL     1      12.413  -2.277  11.617  0.00  0.00    +0.000 HD
ATOM     16  H   UNL     1      14.709  -3.193  11.809  0.00  0.00    +0.000 HD
ATOM     17  H   UNL     1      12.407  -3.794   5.048  0.00  0.00    +0.000 HD
ENDROOT
TORSDOF 0
ENDMDL
MODEL 10
REMARK VINA RESULT:    -4.949     10.245     11.529
REMARK INTER + INTRA:          -4.949
REMARK INTER:                  -4.949
REMARK INTRA:                   0.000
REMARK UNBOUND:                 0.000
REMARK  Name = 323
REMARK  0 active torsions:
REMARK  status: ('A' for Active; 'I' for Inactive)
REMARK                            x       y       z     vdW  Elec       q    Type
REMARK                         _______ _______ _______ _____ _____    ______ ____
ROOT
ATOM      1  O   UNL     1       1.780  -1.953 -13.377  0.00  0.00    +0.000 OA
ATOM      2  O   UNL     1      -0.157  -1.431 -12.273  0.00  0.00    +0.000 OA
ATOM      3  C   UNL     1       3.180  -0.153 -14.228  0.00  0.00    +0.000 A 
ATOM      4  C   UNL     1       2.936  -1.513 -14.054  0.00  0.00    +0.000 A 
ATOM      5  C   UNL     1       4.336   0.245 -14.904  0.00  0.00    +0.000 A 
ATOM      6  C   UNL     1       2.222   0.804 -13.699  0.00  0.00    +0.000 A 
ATOM      7  C   UNL     1       3.813  -2.482 -14.536  0.00  0.00    +0.000 A 
ATOM      8  C   UNL     1       5.224  -0.716 -15.393  0.00  0.00    +0.000 A 
ATOM      9  C   UNL     1       4.964  -2.077 -15.209  0.00  0.00    +0.000 A 
ATOM     10  C   UNL     1       1.130   0.378 -13.060  0.00  0.00    +0.000 A 
ATOM     11  C   UNL     1       0.849  -1.056 -12.863  0.00  0.00    +0.000 A 
ATOM     12  H   UNL     1       4.558   1.299 -15.056  0.00  0.00    +0.000 HD
ATOM     13  H   UNL     1       2.409   1.865 -13.832  0.00  0.00    +0.000 HD
ATOM     14  H   UNL     1       3.608  -3.539 -14.393  0.00  0.00    +0.000 HD
ATOM     15  H   UNL     1       6.123  -0.404 -15.918  0.00  0.00    +0.000 HD
ATOM     16  H   UNL     1       5.659  -2.818 -15.592  0.00  0.00    +0.000 HD
ATOM     17  H   UNL     1       0.411   1.087 -12.663  0.00  0.00    +0.000 HD
ENDROOT
TORSDOF 0
ENDMDL
