MODEL 1
REMARK VINA RESULT:    -4.901      0.000      0.000
REMARK INTER + INTRA:          -8.398
REMARK INTER:                  -7.598
REMARK INTRA:                  -0.800
REMARK UNBOUND:                -0.919
REMARK  Name = 2969
REMARK  10 active torsions:
REMARK  status: ('A' for Active; 'I' for Inactive)
REMARK    1  A    between atoms: O_1  and  C_12
REMARK    2  A    between atoms: C_3  and  C_4
REMARK    3  A    between atoms: C_3  and  C_5
REMARK    4  A    between atoms: C_4  and  C_6
REMARK    5  A    between atoms: C_5  and  C_7
REMARK    6  A    between atoms: C_6  and  C_8
REMARK    7  A    between atoms: C_7  and  C_9
REMARK    8  A    between atoms: C_8  and  C_10
REMARK    9  A    between atoms: C_9  and  C_11
REMARK   10  A    between atoms: C_10  and  C_12
REMARK                            x       y       z     vdW  Elec       q    Type
REMARK                         _______ _______ _______ _____ _____    ______ ____
ROOT
ATOM      1  C   UNL     1     -20.372  -0.120   5.584  0.00  0.00    +0.000 C 
ATOM      2  H   UNL     1     -21.075   0.710   5.727  0.00  0.00    +0.000 HD
ATOM      3  H   UNL     1     -19.396   0.334   5.377  0.00  0.00    +0.000 HD
ENDROOT
BRANCH   1   4
ATOM      4  C   UNL     1     -20.803  -0.919   4.350  0.00  0.00    +0.000 C 
ATOM      5  H   UNL     1     -19.902  -1.226   3.805  0.00  0.00    +0.000 HD
ATOM      6  H   UNL     1     -21.357  -0.251   3.677  0.00  0.00    +0.000 HD
BRANCH   4   7
ATOM      7  C   UNL     1     -21.662  -2.157   4.623  0.00  0.00    +0.000 C 
ATOM      8  H   UNL     1     -21.851  -2.233   5.700  0.00  0.00    +0.000 HD
ATOM      9  H   UNL     1     -22.637  -2.027   4.138  0.00  0.00    +0.000 HD
BRANCH   7  10
ATOM     10  C   UNL     1     -21.020  -3.461   4.135  0.00  0.00    +0.000 C 
ATOM     11  H   UNL     1     -20.359  -3.247   3.285  0.00  0.00    +0.000 HD
ATOM     12  H   UNL     1     -21.801  -4.133   3.761  0.00  0.00    +0.000 HD
BRANCH  10  13
ATOM     13  C   UNL     1     -20.228  -4.167   5.236  0.00  0.00    +0.000 C 
ATOM     14  H   UNL     1     -19.742  -3.419   5.874  0.00  0.00    +0.000 HD
ATOM     15  H   UNL     1     -20.910  -4.766   5.851  0.00  0.00    +0.000 HD
BRANCH  13  17
ATOM     16  O   UNL     1     -18.905  -5.282   3.521  0.00  0.00    +0.000 OA
ATOM     17  C   UNL     1     -19.155  -5.090   4.703  0.00  0.00    +0.000 C 
BRANCH  17  18
ATOM     18  O   UNL     1     -18.464  -5.683   5.712  0.00  0.00    +0.000 OA
ATOM     19  H   UNL     1     -17.708  -6.211   5.376  0.00  0.00    +0.000 HD
ENDBRANCH  17  18
ENDBRANCH  13  17
ENDBRANCH  10  13
ENDBRANCH   7  10
ENDBRANCH   4   7
ENDBRANCH   1   4
BRANCH   1  20
ATOM     20  C   UNL     1     -20.273  -0.916   6.890  0.00  0.00    +0.000 C 
ATOM     21  H   UNL     1     -19.225  -0.946   7.209  0.00  0.00    +0.000 HD
ATOM     22  H   UNL     1     -20.576  -1.952   6.697  0.00  0.00    +0.000 HD
BRANCH  20  23
ATOM     23  C   UNL     1     -21.128  -0.337   8.019  0.00  0.00    +0.000 C 
ATOM     24  H   UNL     1     -20.576  -0.392   8.965  0.00  0.00    +0.000 HD
ATOM     25  H   UNL     1     -21.325   0.723   7.822  0.00  0.00    +0.000 HD
BRANCH  23  26
ATOM     26  C   UNL     1     -22.452  -1.091   8.153  0.00  0.00    +0.000 C 
ATOM     27  H   UNL     1     -23.012  -0.710   9.015  0.00  0.00    +0.000 HD
ATOM     28  H   UNL     1     -23.070  -0.919   7.264  0.00  0.00    +0.000 HD
BRANCH  26  29
ATOM     29  C   UNL     1     -22.228  -2.584   8.327  0.00  0.00    +0.000 C 
ATOM     30  H   UNL     1     -21.195  -2.793   8.623  0.00  0.00    +0.000 HD
ATOM     31  H   UNL     1     -22.425  -3.109   7.386  0.00  0.00    +0.000 HD
ATOM     32  H   UNL     1     -22.895  -2.995   9.091  0.00  0.00    +0.000 HD
ENDBRANCH  26  29
ENDBRANCH  23  26
ENDBRANCH  20  23
ENDBRANCH   1  20
TORSDOF 10
ENDMDL
MODEL 2
REMARK VINA RESULT:    -4.482     27.069     28.462
REMARK INTER + INTRA:          -7.759
REMARK INTER:                  -7.120
REMARK INTRA:                  -0.639
REMARK UNBOUND:                -0.919
REMARK  Name = 2969
REMARK  10 active torsions:
REMARK  status: ('A' for Active; 'I' for Inactive)
REMARK    1  A    between atoms: O_1  and  C_12
REMARK    2  A    between atoms: C_3  and  C_4
REMARK    3  A    between atoms: C_3  and  C_5
REMARK    4  A    between atoms: C_4  and  C_6
REMARK    5  A    between atoms: C_5  and  C_7
REMARK    6  A    between atoms: C_6  and  C_8
REMARK    7  A    between atoms: C_7  and  C_9
REMARK    8  A    between atoms: C_8  and  C_10
REMARK    9  A    between atoms: C_9  and  C_11
REMARK   10  A    between atoms: C_10  and  C_12
REMARK                            x       y       z     vdW  Elec       q    Type
REMARK                         _______ _______ _______ _____ _____    ______ ____
ROOT
ATOM      1  C   UNL     1      -2.817   9.772  -9.643  0.00  0.00    +0.000 C 
ATOM      2  H   UNL     1      -3.792  10.262  -9.534  0.00  0.00    +0.000 HD
ATOM      3  H   UNL     1      -2.090  10.412  -9.128  0.00  0.00    +0.000 HD
ENDROOT
BRANCH   1   4
ATOM      4  C   UNL     1      -2.455   9.732 -11.132  0.00  0.00    +0.000 C 
ATOM      5  H   UNL     1      -3.105  10.437 -11.664  0.00  0.00    +0.000 HD
ATOM      6  H   UNL     1      -2.696   8.735 -11.524  0.00  0.00    +0.000 HD
BRANCH   4   7
ATOM      7  C   UNL     1      -0.996  10.051 -11.471  0.00  0.00    +0.000 C 
ATOM      8  H   UNL     1      -0.963  10.932 -12.123  0.00  0.00    +0.000 HD
ATOM      9  H   UNL     1      -0.468  10.319 -10.548  0.00  0.00    +0.000 HD
BRANCH   7  10
ATOM     10  C   UNL     1      -0.265   8.892 -12.159  0.00  0.00    +0.000 C 
ATOM     11  H   UNL     1      -0.482   7.956 -11.627  0.00  0.00    +0.000 HD
ATOM     12  H   UNL     1       0.817   9.049 -12.085  0.00  0.00    +0.000 HD
BRANCH  10  13
ATOM     13  C   UNL     1      -0.657   8.749 -13.630  0.00  0.00    +0.000 C 
ATOM     14  H   UNL     1      -0.717   7.685 -13.890  0.00  0.00    +0.000 HD
ATOM     15  H   UNL     1      -1.638   9.208 -13.795  0.00  0.00    +0.000 HD
BRANCH  13  17
ATOM     16  O   UNL     1       0.677  10.575 -14.538  0.00  0.00    +0.000 OA
ATOM     17  C   UNL     1       0.325   9.404 -14.576  0.00  0.00    +0.000 C 
BRANCH  17  18
ATOM     18  O   UNL     1       0.806   8.515 -15.486  0.00  0.00    +0.000 OA
ATOM     19  H   UNL     1       0.566   7.591 -15.255  0.00  0.00    +0.000 HD
ENDBRANCH  17  18
ENDBRANCH  13  17
ENDBRANCH  10  13
ENDBRANCH   7  10
ENDBRANCH   4   7
ENDBRANCH   1   4
BRANCH   1  20
ATOM     20  C   UNL     1      -2.863   8.415  -8.933  0.00  0.00    +0.000 C 
ATOM     21  H   UNL     1      -3.739   8.388  -8.274  0.00  0.00    +0.000 HD
ATOM     22  H   UNL     1      -1.980   8.323  -8.289  0.00  0.00    +0.000 HD
BRANCH  20  23
ATOM     23  C   UNL     1      -2.918   7.228  -9.896  0.00  0.00    +0.000 C 
ATOM     24  H   UNL     1      -2.499   7.520 -10.866  0.00  0.00    +0.000 HD
ATOM     25  H   UNL     1      -2.296   6.413  -9.507  0.00  0.00    +0.000 HD
BRANCH  23  26
ATOM     26  C   UNL     1      -4.354   6.735 -10.084  0.00  0.00    +0.000 C 
ATOM     27  H   UNL     1      -4.439   5.697  -9.743  0.00  0.00    +0.000 HD
ATOM     28  H   UNL     1      -5.037   7.335  -9.471  0.00  0.00    +0.000 HD
BRANCH  26  29
ATOM     29  C   UNL     1      -4.785   6.817 -11.539  0.00  0.00    +0.000 C 
ATOM     30  H   UNL     1      -5.620   7.514 -11.662  0.00  0.00    +0.000 HD
ATOM     31  H   UNL     1      -5.108   5.833 -11.895  0.00  0.00    +0.000 HD
ATOM     32  H   UNL     1      -3.960   7.153 -12.175  0.00  0.00    +0.000 HD
ENDBRANCH  26  29
ENDBRANCH  23  26
ENDBRANCH  20  23
ENDBRANCH   1  20
TORSDOF 10
ENDMDL
MODEL 3
REMARK VINA RESULT:    -4.463      3.185      5.721
REMARK INTER + INTRA:          -7.730
REMARK INTER:                  -7.292
REMARK INTRA:                  -0.438
REMARK UNBOUND:                -0.919
REMARK  Name = 2969
REMARK  10 active torsions:
REMARK  status: ('A' for Active; 'I' for Inactive)
REMARK    1  A    between atoms: O_1  and  C_12
REMARK    2  A    between atoms: C_3  and  C_4
REMARK    3  A    between atoms: C_3  and  C_5
REMARK    4  A    between atoms: C_4  and  C_6
REMARK    5  A    between atoms: C_5  and  C_7
REMARK    6  A    between atoms: C_6  and  C_8
REMARK    7  A    between atoms: C_7  and  C_9
REMARK    8  A    between atoms: C_8  and  C_10
REMARK    9  A    between atoms: C_9  and  C_11
REMARK   10  A    between atoms: C_10  and  C_12
REMARK                            x       y       z     vdW  Elec       q    Type
REMARK                         _______ _______ _______ _____ _____    ______ ____
ROOT
ATOM      1  C   UNL     1     -20.569  -3.654   5.300  0.00  0.00    +0.000 C 
ATOM      2  H   UNL     1     -21.398  -3.878   5.983  0.00  0.00    +0.000 HD
ATOM      3  H   UNL     1     -19.671  -3.564   5.924  0.00  0.00    +0.000 HD
ENDROOT
BRANCH   1   4
ATOM      4  C   UNL     1     -20.834  -2.298   4.638  0.00  0.00    +0.000 C 
ATOM      5  H   UNL     1     -21.838  -2.319   4.198  0.00  0.00    +0.000 HD
ATOM      6  H   UNL     1     -20.134  -2.173   3.802  0.00  0.00    +0.000 HD
BRANCH   4   7
ATOM      7  C   UNL     1     -20.722  -1.075   5.555  0.00  0.00    +0.000 C 
ATOM      8  H   UNL     1     -19.872  -0.463   5.235  0.00  0.00    +0.000 HD
ATOM      9  H   UNL     1     -21.622  -0.459   5.434  0.00  0.00    +0.000 HD
BRANCH   7  10
ATOM     10  C   UNL     1     -20.549  -1.440   7.034  0.00  0.00    +0.000 C 
ATOM     11  H   UNL     1     -19.480  -1.502   7.272  0.00  0.00    +0.000 HD
ATOM     12  H   UNL     1     -20.965  -2.439   7.213  0.00  0.00    +0.000 HD
BRANCH  10  13
ATOM     13  C   UNL     1     -21.227  -0.434   7.964  0.00  0.00    +0.000 C 
ATOM     14  H   UNL     1     -20.484  -0.017   8.654  0.00  0.00    +0.000 HD
ATOM     15  H   UNL     1     -21.656   0.382   7.371  0.00  0.00    +0.000 HD
BRANCH  13  17
ATOM     16  O   UNL     1     -22.586  -2.234   8.886  0.00  0.00    +0.000 OA
ATOM     17  C   UNL     1     -22.340  -1.040   8.791  0.00  0.00    +0.000 C 
BRANCH  17  18
ATOM     18  O   UNL     1     -23.043  -0.083   9.453  0.00  0.00    +0.000 OA
ATOM     19  H   UNL     1     -23.542  -0.456  10.212  0.00  0.00    +0.000 HD
ENDBRANCH  17  18
ENDBRANCH  13  17
ENDBRANCH  10  13
ENDBRANCH   7  10
ENDBRANCH   4   7
ENDBRANCH   1   4
BRANCH   1  20
ATOM     20  C   UNL     1     -20.382  -4.836   4.343  0.00  0.00    +0.000 C 
ATOM     21  H   UNL     1     -20.701  -4.534   3.339  0.00  0.00    +0.000 HD
ATOM     22  H   UNL     1     -21.046  -5.652   4.655  0.00  0.00    +0.000 HD
BRANCH  20  23
ATOM     23  C   UNL     1     -18.941  -5.346   4.283  0.00  0.00    +0.000 C 
ATOM     24  H   UNL     1     -18.362  -4.912   5.107  0.00  0.00    +0.000 HD
ATOM     25  H   UNL     1     -18.932  -6.434   4.419  0.00  0.00    +0.000 HD
BRANCH  23  26
ATOM     26  C   UNL     1     -18.283  -4.989   2.949  0.00  0.00    +0.000 C 
ATOM     27  H   UNL     1     -17.570  -4.168   3.094  0.00  0.00    +0.000 HD
ATOM     28  H   UNL     1     -17.716  -5.847   2.572  0.00  0.00    +0.000 HD
BRANCH  26  29
ATOM     29  C   UNL     1     -19.314  -4.574   1.913  0.00  0.00    +0.000 C 
ATOM     30  H   UNL     1     -19.834  -5.447   1.506  0.00  0.00    +0.000 HD
ATOM     31  H   UNL     1     -18.828  -4.051   1.083  0.00  0.00    +0.000 HD
ATOM     32  H   UNL     1     -20.060  -3.902   2.348  0.00  0.00    +0.000 HD
ENDBRANCH  26  29
ENDBRANCH  23  26
ENDBRANCH  20  23
ENDBRANCH   1  20
TORSDOF 10
ENDMDL
MODEL 4
REMARK VINA RESULT:    -4.271      1.447      1.975
REMARK INTER + INTRA:          -7.437
REMARK INTER:                  -6.711
REMARK INTRA:                  -0.726
REMARK UNBOUND:                -0.919
REMARK  Name = 2969
REMARK  10 active torsions:
REMARK  status: ('A' for Active; 'I' for Inactive)
REMARK    1  A    between atoms: O_1  and  C_12
REMARK    2  A    between atoms: C_3  and  C_4
REMARK    3  A    between atoms: C_3  and  C_5
REMARK    4  A    between atoms: C_4  and  C_6
REMARK    5  A    between atoms: C_5  and  C_7
REMARK    6  A    between atoms: C_6  and  C_8
REMARK    7  A    between atoms: C_7  and  C_9
REMARK    8  A    between atoms: C_8  and  C_10
REMARK    9  A    between atoms: C_9  and  C_11
REMARK   10  A    between atoms: C_10  and  C_12
REMARK                            x       y       z     vdW  Elec       q    Type
REMARK                         _______ _______ _______ _____ _____    ______ ____
ROOT
ATOM      1  C   UNL     1     -20.742  -1.149   5.379  0.00  0.00    +0.000 C 
ATOM      2  H   UNL     1     -21.710  -0.634   5.360  0.00  0.00    +0.000 HD
ATOM      3  H   UNL     1     -20.056  -0.541   4.776  0.00  0.00    +0.000 HD
ENDROOT
BRANCH   1   4
ATOM      4  C   UNL     1     -20.900  -2.513   4.700  0.00  0.00    +0.000 C 
ATOM      5  H   UNL     1     -20.269  -2.527   3.803  0.00  0.00    +0.000 HD
ATOM      6  H   UNL     1     -21.936  -2.610   4.348  0.00  0.00    +0.000 HD
BRANCH   4   7
ATOM      7  C   UNL     1     -20.561  -3.732   5.564  0.00  0.00    +0.000 C 
ATOM      8  H   UNL     1     -20.092  -3.393   6.494  0.00  0.00    +0.000 HD
ATOM      9  H   UNL     1     -21.494  -4.237   5.844  0.00  0.00    +0.000 HD
BRANCH   7  10
ATOM     10  C   UNL     1     -19.629  -4.729   4.866  0.00  0.00    +0.000 C 
ATOM     11  H   UNL     1     -19.965  -5.752   5.077  0.00  0.00    +0.000 HD
ATOM     12  H   UNL     1     -18.621  -4.639   5.286  0.00  0.00    +0.000 HD
BRANCH  10  13
ATOM     13  C   UNL     1     -19.569  -4.509   3.354  0.00  0.00    +0.000 C 
ATOM     14  H   UNL     1     -20.110  -3.591   3.097  0.00  0.00    +0.000 HD
ATOM     15  H   UNL     1     -18.525  -4.404   3.040  0.00  0.00    +0.000 HD
BRANCH  13  17
ATOM     16  O   UNL     1     -19.559  -6.559   2.036  0.00  0.00    +0.000 OA
ATOM     17  C   UNL     1     -20.179  -5.644   2.561  0.00  0.00    +0.000 C 
BRANCH  17  18
ATOM     18  O   UNL     1     -21.534  -5.544   2.513  0.00  0.00    +0.000 OA
ATOM     19  H   UNL     1     -21.824  -4.730   2.048  0.00  0.00    +0.000 HD
ENDBRANCH  17  18
ENDBRANCH  13  17
ENDBRANCH  10  13
ENDBRANCH   7  10
ENDBRANCH   4   7
ENDBRANCH   1   4
BRANCH   1  20
ATOM     20  C   UNL     1     -20.226  -1.180   6.822  0.00  0.00    +0.000 C 
ATOM     21  H   UNL     1     -19.211  -0.767   6.845  0.00  0.00    +0.000 HD
ATOM     22  H   UNL     1     -20.150  -2.224   7.148  0.00  0.00    +0.000 HD
BRANCH  20  23
ATOM     23  C   UNL     1     -21.110  -0.403   7.799  0.00  0.00    +0.000 C 
ATOM     24  H   UNL     1     -20.618  -0.349   8.777  0.00  0.00    +0.000 HD
ATOM     25  H   UNL     1     -21.234   0.626   7.442  0.00  0.00    +0.000 HD
BRANCH  23  26
ATOM     26  C   UNL     1     -22.482  -1.064   7.950  0.00  0.00    +0.000 C 
ATOM     27  H   UNL     1     -23.132  -0.435   8.569  0.00  0.00    +0.000 HD
ATOM     28  H   UNL     1     -22.960  -1.157   6.968  0.00  0.00    +0.000 HD
BRANCH  26  29
ATOM     29  C   UNL     1     -22.370  -2.440   8.585  0.00  0.00    +0.000 C 
ATOM     30  H   UNL     1     -23.062  -2.541   9.426  0.00  0.00    +0.000 HD
ATOM     31  H   UNL     1     -21.354  -2.603   8.960  0.00  0.00    +0.000 HD
ATOM     32  H   UNL     1     -22.594  -3.228   7.859  0.00  0.00    +0.000 HD
ENDBRANCH  26  29
ENDBRANCH  23  26
ENDBRANCH  20  23
ENDBRANCH   1  20
TORSDOF 10
ENDMDL
MODEL 5
REMARK VINA RESULT:    -4.021     21.563     23.169
REMARK INTER + INTRA:          -7.055
REMARK INTER:                  -6.809
REMARK INTRA:                  -0.247
REMARK UNBOUND:                -0.919
REMARK  Name = 2969
REMARK  10 active torsions:
REMARK  status: ('A' for Active; 'I' for Inactive)
REMARK    1  A    between atoms: O_1  and  C_12
REMARK    2  A    between atoms: C_3  and  C_4
REMARK    3  A    between atoms: C_3  and  C_5
REMARK    4  A    between atoms: C_4  and  C_6
REMARK    5  A    between atoms: C_5  and  C_7
REMARK    6  A    between atoms: C_6  and  C_8
REMARK    7  A    between atoms: C_7  and  C_9
REMARK    8  A    between atoms: C_8  and  C_10
REMARK    9  A    between atoms: C_9  and  C_11
REMARK   10  A    between atoms: C_10  and  C_12
REMARK                            x       y       z     vdW  Elec       q    Type
REMARK                         _______ _______ _______ _____ _____    ______ ____
ROOT
ATOM      1  C   UNL     1      -4.079   6.854  -9.018  0.00  0.00    +0.000 C 
ATOM      2  H   UNL     1      -3.152   6.775  -8.435  0.00  0.00    +0.000 HD
ATOM      3  H   UNL     1      -4.495   7.846  -8.805  0.00  0.00    +0.000 HD
ENDROOT
BRANCH   1   4
ATOM      4  C   UNL     1      -5.066   5.798  -8.509  0.00  0.00    +0.000 C 
ATOM      5  H   UNL     1      -4.928   5.690  -7.426  0.00  0.00    +0.000 HD
ATOM      6  H   UNL     1      -4.801   4.829  -8.951  0.00  0.00    +0.000 HD
BRANCH   4   7
ATOM      7  C   UNL     1      -6.545   6.077  -8.794  0.00  0.00    +0.000 C 
ATOM      8  H   UNL     1      -6.710   7.160  -8.814  0.00  0.00    +0.000 HD
ATOM      9  H   UNL     1      -6.790   5.699  -9.794  0.00  0.00    +0.000 HD
BRANCH   7  10
ATOM     10  C   UNL     1      -7.491   5.446  -7.765  0.00  0.00    +0.000 C 
ATOM     11  H   UNL     1      -6.929   4.746  -7.133  0.00  0.00    +0.000 HD
ATOM     12  H   UNL     1      -8.251   4.852  -8.286  0.00  0.00    +0.000 HD
BRANCH  10  13
ATOM     13  C   UNL     1      -8.178   6.493  -6.888  0.00  0.00    +0.000 C 
ATOM     14  H   UNL     1      -7.561   7.399  -6.849  0.00  0.00    +0.000 HD
ATOM     15  H   UNL     1      -9.153   6.748  -7.318  0.00  0.00    +0.000 HD
BRANCH  13  17
ATOM     16  O   UNL     1      -9.194   5.156  -5.123  0.00  0.00    +0.000 OA
ATOM     17  C   UNL     1      -8.407   6.026  -5.467  0.00  0.00    +0.000 C 
BRANCH  17  18
ATOM     18  O   UNL     1      -7.600   6.683  -4.593  0.00  0.00    +0.000 OA
ATOM     19  H   UNL     1      -8.116   7.170  -3.915  0.00  0.00    +0.000 HD
ENDBRANCH  17  18
ENDBRANCH  13  17
ENDBRANCH  10  13
ENDBRANCH   7  10
ENDBRANCH   4   7
ENDBRANCH   1   4
BRANCH   1  20
ATOM     20  C   UNL     1      -3.734   6.779 -10.509  0.00  0.00    +0.000 C 
ATOM     21  H   UNL     1      -4.524   7.279 -11.082  0.00  0.00    +0.000 HD
ATOM     22  H   UNL     1      -3.735   5.727 -10.820  0.00  0.00    +0.000 HD
BRANCH  20  23
ATOM     23  C   UNL     1      -2.384   7.411 -10.852  0.00  0.00    +0.000 C 
ATOM     24  H   UNL     1      -1.650   7.153 -10.079  0.00  0.00    +0.000 HD
ATOM     25  H   UNL     1      -2.016   6.997 -11.798  0.00  0.00    +0.000 HD
BRANCH  23  26
ATOM     26  C   UNL     1      -2.498   8.932 -10.965  0.00  0.00    +0.000 C 
ATOM     27  H   UNL     1      -2.174   9.256 -11.961  0.00  0.00    +0.000 HD
ATOM     28  H   UNL     1      -3.545   9.236 -10.850  0.00  0.00    +0.000 HD
BRANCH  26  29
ATOM     29  C   UNL     1      -1.653   9.634  -9.915  0.00  0.00    +0.000 C 
ATOM     30  H   UNL     1      -2.126  10.566  -9.590  0.00  0.00    +0.000 HD
ATOM     31  H   UNL     1      -0.667   9.878 -10.323  0.00  0.00    +0.000 HD
ATOM     32  H   UNL     1      -1.509   8.997  -9.037  0.00  0.00    +0.000 HD
ENDBRANCH  26  29
ENDBRANCH  23  26
ENDBRANCH  20  23
ENDBRANCH   1  20
TORSDOF 10
ENDMDL
MODEL 6
REMARK VINA RESULT:    -4.002     24.144     25.483
REMARK INTER + INTRA:          -7.027
REMARK INTER:                  -6.700
REMARK INTRA:                  -0.327
REMARK UNBOUND:                -0.919
REMARK  Name = 2969
REMARK  10 active torsions:
REMARK  status: ('A' for Active; 'I' for Inactive)
REMARK    1  A    between atoms: O_1  and  C_12
REMARK    2  A    between atoms: C_3  and  C_4
REMARK    3  A    between atoms: C_3  and  C_5
REMARK    4  A    between atoms: C_4  and  C_6
REMARK    5  A    between atoms: C_5  and  C_7
REMARK    6  A    between atoms: C_6  and  C_8
REMARK    7  A    between atoms: C_7  and  C_9
REMARK    8  A    between atoms: C_8  and  C_10
REMARK    9  A    between atoms: C_9  and  C_11
REMARK   10  A    between atoms: C_10  and  C_12
REMARK                            x       y       z     vdW  Elec       q    Type
REMARK                         _______ _______ _______ _____ _____    ______ ____
ROOT
ATOM      1  C   UNL     1      -4.240   6.473  -8.813  0.00  0.00    +0.000 C 
ATOM      2  H   UNL     1      -4.332   7.307  -8.106  0.00  0.00    +0.000 HD
ATOM      3  H   UNL     1      -3.844   5.626  -8.240  0.00  0.00    +0.000 HD
ENDROOT
BRANCH   1   4
ATOM      4  C   UNL     1      -3.213   6.853  -9.885  0.00  0.00    +0.000 C 
ATOM      5  H   UNL     1      -2.410   6.105  -9.874  0.00  0.00    +0.000 HD
ATOM      6  H   UNL     1      -2.749   7.807  -9.603  0.00  0.00    +0.000 HD
BRANCH   4   7
ATOM      7  C   UNL     1      -3.754   6.976 -11.313  0.00  0.00    +0.000 C 
ATOM      8  H   UNL     1      -4.465   6.163 -11.499  0.00  0.00    +0.000 HD
ATOM      9  H   UNL     1      -4.314   7.915 -11.399  0.00  0.00    +0.000 HD
BRANCH   7  10
ATOM     10  C   UNL     1      -2.657   6.937 -12.383  0.00  0.00    +0.000 C 
ATOM     11  H   UNL     1      -2.863   7.698 -13.146  0.00  0.00    +0.000 HD
ATOM     12  H   UNL     1      -2.683   5.968 -12.895  0.00  0.00    +0.000 HD
BRANCH  10  13
ATOM     13  C   UNL     1      -1.263   7.162 -11.795  0.00  0.00    +0.000 C 
ATOM     14  H   UNL     1      -1.320   7.138 -10.700  0.00  0.00    +0.000 HD
ATOM     15  H   UNL     1      -0.591   6.364 -12.131  0.00  0.00    +0.000 HD
BRANCH  13  17
ATOM     16  O   UNL     1      -0.519   9.460 -11.473  0.00  0.00    +0.000 OA
ATOM     17  C   UNL     1      -0.651   8.485 -12.199  0.00  0.00    +0.000 C 
BRANCH  17  18
ATOM     18  O   UNL     1      -0.229   8.461 -13.492  0.00  0.00    +0.000 OA
ATOM     19  H   UNL     1      -0.873   8.893 -14.094  0.00  0.00    +0.000 HD
ENDBRANCH  17  18
ENDBRANCH  13  17
ENDBRANCH  10  13
ENDBRANCH   7  10
ENDBRANCH   4   7
ENDBRANCH   1   4
BRANCH   1  20
ATOM     20  C   UNL     1      -5.635   6.104  -9.329  0.00  0.00    +0.000 C 
ATOM     21  H   UNL     1      -5.545   5.264 -10.027  0.00  0.00    +0.000 HD
ATOM     22  H   UNL     1      -6.036   6.950  -9.901  0.00  0.00    +0.000 HD
BRANCH  20  23
ATOM     23  C   UNL     1      -6.615   5.732  -8.214  0.00  0.00    +0.000 C 
ATOM     24  H   UNL     1      -6.194   6.018  -7.243  0.00  0.00    +0.000 HD
ATOM     25  H   UNL     1      -7.545   6.297  -8.342  0.00  0.00    +0.000 HD
BRANCH  23  26
ATOM     26  C   UNL     1      -6.918   4.233  -8.222  0.00  0.00    +0.000 C 
ATOM     27  H   UNL     1      -7.256   3.927  -9.219  0.00  0.00    +0.000 HD
ATOM     28  H   UNL     1      -6.004   3.668  -8.003  0.00  0.00    +0.000 HD
BRANCH  26  29
ATOM     29  C   UNL     1      -7.986   3.875  -7.203  0.00  0.00    +0.000 C 
ATOM     30  H   UNL     1      -7.537   3.473  -6.289  0.00  0.00    +0.000 HD
ATOM     31  H   UNL     1      -8.661   3.116  -7.611  0.00  0.00    +0.000 HD
ATOM     32  H   UNL     1      -8.584   4.752  -6.935  0.00  0.00    +0.000 HD
ENDBRANCH  26  29
ENDBRANCH  23  26
ENDBRANCH  20  23
ENDBRANCH   1  20
TORSDOF 10
ENDMDL
MODEL 7
REMARK VINA RESULT:    -4.002     26.042     27.589
REMARK INTER + INTRA:          -7.027
REMARK INTER:                  -6.401
REMARK INTRA:                  -0.626
REMARK UNBOUND:                -0.919
REMARK  Name = 2969
REMARK  10 active torsions:
REMARK  status: ('A' for Active; 'I' for Inactive)
REMARK    1  A    between atoms: O_1  and  C_12
REMARK    2  A    between atoms: C_3  and  C_4
REMARK    3  A    between atoms: C_3  and  C_5
REMARK    4  A    between atoms: C_4  and  C_6
REMARK    5  A    between atoms: C_5  and  C_7
REMARK    6  A    between atoms: C_6  and  C_8
REMARK    7  A    between atoms: C_7  and  C_9
REMARK    8  A    between atoms: C_8  and  C_10
REMARK    9  A    between atoms: C_9  and  C_11
REMARK   10  A    between atoms: C_10  and  C_12
REMARK                            x       y       z     vdW  Elec       q    Type
REMARK                         _______ _______ _______ _____ _____    ______ ____
ROOT
ATOM      1  C   UNL     1      -1.275   9.847 -10.075  0.00  0.00    +0.000 C 
ATOM      2  H   UNL     1      -0.671   9.001  -9.722  0.00  0.00    +0.000 HD
ATOM      3  H   UNL     1      -0.874  10.740  -9.580  0.00  0.00    +0.000 HD
ENDROOT
BRANCH   1   4
ATOM      4  C   UNL     1      -2.720   9.644  -9.605  0.00  0.00    +0.000 C 
ATOM      5  H   UNL     1      -3.378   9.697 -10.481  0.00  0.00    +0.000 HD
ATOM      6  H   UNL     1      -2.999  10.486  -8.959  0.00  0.00    +0.000 HD
BRANCH   4   7
ATOM      7  C   UNL     1      -3.000   8.338  -8.855  0.00  0.00    +0.000 C 
ATOM      8  H   UNL     1      -2.253   8.212  -8.062  0.00  0.00    +0.000 HD
ATOM      9  H   UNL     1      -3.977   8.415  -8.362  0.00  0.00    +0.000 HD
BRANCH   7  10
ATOM     10  C   UNL     1      -2.982   7.102  -9.761  0.00  0.00    +0.000 C 
ATOM     11  H   UNL     1      -2.568   6.249  -9.208  0.00  0.00    +0.000 HD
ATOM     12  H   UNL     1      -2.307   7.281 -10.607  0.00  0.00    +0.000 HD
BRANCH  10  13
ATOM     13  C   UNL     1      -4.373   6.747 -10.289  0.00  0.00    +0.000 C 
ATOM     14  H   UNL     1      -4.553   5.675 -10.152  0.00  0.00    +0.000 HD
ATOM     15  H   UNL     1      -5.130   7.308  -9.730  0.00  0.00    +0.000 HD
BRANCH  13  17
ATOM     16  O   UNL     1      -3.886   7.863 -12.400  0.00  0.00    +0.000 OA
ATOM     17  C   UNL     1      -4.553   7.065 -11.757  0.00  0.00    +0.000 C 
BRANCH  17  18
ATOM     18  O   UNL     1      -5.554   6.325 -12.304  0.00  0.00    +0.000 OA
ATOM     19  H   UNL     1      -6.439   6.658 -12.042  0.00  0.00    +0.000 HD
ENDBRANCH  17  18
ENDBRANCH  13  17
ENDBRANCH  10  13
ENDBRANCH   7  10
ENDBRANCH   4   7
ENDBRANCH   1   4
BRANCH   1  20
ATOM     20  C   UNL     1      -1.082   9.996 -11.587  0.00  0.00    +0.000 C 
ATOM     21  H   UNL     1      -0.458  10.877 -11.780  0.00  0.00    +0.000 HD
ATOM     22  H   UNL     1      -2.056  10.191 -12.051  0.00  0.00    +0.000 HD
BRANCH  20  23
ATOM     23  C   UNL     1      -0.441   8.771 -12.241  0.00  0.00    +0.000 C 
ATOM     24  H   UNL     1       0.380   8.406 -11.613  0.00  0.00    +0.000 HD
ATOM     25  H   UNL     1      -1.180   7.964 -12.307  0.00  0.00    +0.000 HD
BRANCH  23  26
ATOM     26  C   UNL     1       0.087   9.102 -13.638  0.00  0.00    +0.000 C 
ATOM     27  H   UNL     1       1.179   9.006 -13.654  0.00  0.00    +0.000 HD
ATOM     28  H   UNL     1      -0.312   8.386 -14.366  0.00  0.00    +0.000 HD
BRANCH  26  29
ATOM     29  C   UNL     1      -0.296  10.511 -14.059  0.00  0.00    +0.000 C 
ATOM     30  H   UNL     1       0.594  11.130 -14.210  0.00  0.00    +0.000 HD
ATOM     31  H   UNL     1      -0.911  10.984 -13.286  0.00  0.00    +0.000 HD
ATOM     32  H   UNL     1      -0.870  10.500 -14.990  0.00  0.00    +0.000 HD
ENDBRANCH  26  29
ENDBRANCH  23  26
ENDBRANCH  20  23
ENDBRANCH   1  20
TORSDOF 10
ENDMDL
MODEL 8
REMARK VINA RESULT:    -3.860     28.949     30.297
REMARK INTER + INTRA:          -6.810
REMARK INTER:                  -6.473
REMARK INTRA:                  -0.337
REMARK UNBOUND:                -0.919
REMARK  Name = 2969
REMARK  10 active torsions:
REMARK  status: ('A' for Active; 'I' for Inactive)
REMARK    1  A    between atoms: O_1  and  C_12
REMARK    2  A    between atoms: C_3  and  C_4
REMARK    3  A    between atoms: C_3  and  C_5
REMARK    4  A    between atoms: C_4  and  C_6
REMARK    5  A    between atoms: C_5  and  C_7
REMARK    6  A    between atoms: C_6  and  C_8
REMARK    7  A    between atoms: C_7  and  C_9
REMARK    8  A    between atoms: C_8  and  C_10
REMARK    9  A    between atoms: C_9  and  C_11
REMARK   10  A    between atoms: C_10  and  C_12
REMARK                            x       y       z     vdW  Elec       q    Type
REMARK                         _______ _______ _______ _____ _____    ______ ____
ROOT
ATOM      1  C   UNL     1      -1.417   9.634 -11.777  0.00  0.00    +0.000 C 
ATOM      2  H   UNL     1      -2.300   9.025 -12.007  0.00  0.00    +0.000 HD
ATOM      3  H   UNL     1      -1.576  10.605 -12.262  0.00  0.00    +0.000 HD
ENDROOT
BRANCH   1   4
ATOM      4  C   UNL     1      -0.189   8.974 -12.415  0.00  0.00    +0.000 C 
ATOM      5  H   UNL     1      -0.064   7.978 -11.972  0.00  0.00    +0.000 HD
ATOM      6  H   UNL     1       0.702   9.550 -12.135  0.00  0.00    +0.000 HD
BRANCH   4   7
ATOM      7  C   UNL     1      -0.224   8.836 -13.940  0.00  0.00    +0.000 C 
ATOM      8  H   UNL     1      -0.070   7.784 -14.209  0.00  0.00    +0.000 HD
ATOM      9  H   UNL     1      -1.223   9.113 -14.298  0.00  0.00    +0.000 HD
BRANCH   7  10
ATOM     10  C   UNL     1       0.829   9.694 -14.651  0.00  0.00    +0.000 C 
ATOM     11  H   UNL     1       0.973   9.325 -15.674  0.00  0.00    +0.000 HD
ATOM     12  H   UNL     1       1.794   9.582 -14.141  0.00  0.00    +0.000 HD
BRANCH  10  13
ATOM     13  C   UNL     1       0.445  11.174 -14.687  0.00  0.00    +0.000 C 
ATOM     14  H   UNL     1      -0.391  11.317 -15.382  0.00  0.00    +0.000 HD
ATOM     15  H   UNL     1       0.132  11.496 -13.687  0.00  0.00    +0.000 HD
BRANCH  13  17
ATOM     16  O   UNL     1       2.270  11.911 -16.124  0.00  0.00    +0.000 OA
ATOM     17  C   UNL     1       1.577  12.075 -15.129  0.00  0.00    +0.000 C 
BRANCH  17  18
ATOM     18  O   UNL     1       1.729  13.130 -14.287  0.00  0.00    +0.000 OA
ATOM     19  H   UNL     1       0.898  13.336 -13.805  0.00  0.00    +0.000 HD
ENDBRANCH  17  18
ENDBRANCH  13  17
ENDBRANCH  10  13
ENDBRANCH   7  10
ENDBRANCH   4   7
ENDBRANCH   1   4
BRANCH   1  20
ATOM     20  C   UNL     1      -1.345   9.849 -10.262  0.00  0.00    +0.000 C 
ATOM     21  H   UNL     1      -1.350  10.926 -10.056  0.00  0.00    +0.000 HD
ATOM     22  H   UNL     1      -0.387   9.461  -9.894  0.00  0.00    +0.000 HD
BRANCH  20  23
ATOM     23  C   UNL     1      -2.492   9.183  -9.500  0.00  0.00    +0.000 C 
ATOM     24  H   UNL     1      -2.210   9.057  -8.448  0.00  0.00    +0.000 HD
ATOM     25  H   UNL     1      -3.373   9.835  -9.522  0.00  0.00    +0.000 HD
BRANCH  23  26
ATOM     26  C   UNL     1      -2.842   7.823 -10.105  0.00  0.00    +0.000 C 
ATOM     27  H   UNL     1      -3.600   7.948 -10.887  0.00  0.00    +0.000 HD
ATOM     28  H   UNL     1      -1.955   7.387 -10.580  0.00  0.00    +0.000 HD
BRANCH  26  29
ATOM     29  C   UNL     1      -3.368   6.863  -9.051  0.00  0.00    +0.000 C 
ATOM     30  H   UNL     1      -3.949   6.057  -9.510  0.00  0.00    +0.000 HD
ATOM     31  H   UNL     1      -4.020   7.392  -8.348  0.00  0.00    +0.000 HD
ATOM     32  H   UNL     1      -2.548   6.415  -8.482  0.00  0.00    +0.000 HD
ENDBRANCH  26  29
ENDBRANCH  23  26
ENDBRANCH  20  23
ENDBRANCH   1  20
TORSDOF 10
ENDMDL
MODEL 9
REMARK VINA RESULT:    -3.836     25.993     27.556
REMARK INTER + INTRA:          -6.772
REMARK INTER:                  -6.418
REMARK INTRA:                  -0.355
REMARK UNBOUND:                -0.919
REMARK  Name = 2969
REMARK  10 active torsions:
REMARK  status: ('A' for Active; 'I' for Inactive)
REMARK    1  A    between atoms: O_1  and  C_12
REMARK    2  A    between atoms: C_3  and  C_4
REMARK    3  A    between atoms: C_3  and  C_5
REMARK    4  A    between atoms: C_4  and  C_6
REMARK    5  A    between atoms: C_5  and  C_7
REMARK    6  A    between atoms: C_6  and  C_8
REMARK    7  A    between atoms: C_7  and  C_9
REMARK    8  A    between atoms: C_8  and  C_10
REMARK    9  A    between atoms: C_9  and  C_11
REMARK   10  A    between atoms: C_10  and  C_12
REMARK                            x       y       z     vdW  Elec       q    Type
REMARK                         _______ _______ _______ _____ _____    ______ ____
ROOT
ATOM      1  C   UNL     1      -1.110   9.396 -11.496  0.00  0.00    +0.000 C 
ATOM      2  H   UNL     1      -1.267   8.311 -11.553  0.00  0.00    +0.000 HD
ATOM      3  H   UNL     1      -0.036   9.560 -11.645  0.00  0.00    +0.000 HD
ENDROOT
BRANCH   1   4
ATOM      4  C   UNL     1      -1.479   9.869 -10.086  0.00  0.00    +0.000 C 
ATOM      5  H   UNL     1      -1.778  10.923 -10.144  0.00  0.00    +0.000 HD
ATOM      6  H   UNL     1      -0.578   9.839  -9.460  0.00  0.00    +0.000 HD
BRANCH   4   7
ATOM      7  C   UNL     1      -2.588   9.078  -9.386  0.00  0.00    +0.000 C 
ATOM      8  H   UNL     1      -2.378   9.039  -8.311  0.00  0.00    +0.000 HD
ATOM      9  H   UNL     1      -3.536   9.615  -9.506  0.00  0.00    +0.000 HD
BRANCH   7  10
ATOM     10  C   UNL     1      -2.741   7.648  -9.918  0.00  0.00    +0.000 C 
ATOM     11  H   UNL     1      -1.753   7.247 -10.178  0.00  0.00    +0.000 HD
ATOM     12  H   UNL     1      -3.324   7.666 -10.846  0.00  0.00    +0.000 HD
BRANCH  10  13
ATOM     13  C   UNL     1      -3.423   6.722  -8.910  0.00  0.00    +0.000 C 
ATOM     14  H   UNL     1      -2.845   5.795  -8.816  0.00  0.00    +0.000 HD
ATOM     15  H   UNL     1      -3.463   7.213  -7.931  0.00  0.00    +0.000 HD
BRANCH  13  17
ATOM     16  O   UNL     1      -5.324   6.479 -10.414  0.00  0.00    +0.000 OA
ATOM     17  C   UNL     1      -4.836   6.352  -9.300  0.00  0.00    +0.000 C 
BRANCH  17  18
ATOM     18  O   UNL     1      -5.518   5.824  -8.248  0.00  0.00    +0.000 OA
ATOM     19  H   UNL     1      -5.195   4.926  -8.017  0.00  0.00    +0.000 HD
ENDBRANCH  17  18
ENDBRANCH  13  17
ENDBRANCH  10  13
ENDBRANCH   7  10
ENDBRANCH   4   7
ENDBRANCH   1   4
BRANCH   1  20
ATOM     20  C   UNL     1      -1.871  10.066 -12.644  0.00  0.00    +0.000 C 
ATOM     21  H   UNL     1      -2.297  11.011 -12.284  0.00  0.00    +0.000 HD
ATOM     22  H   UNL     1      -2.715   9.427 -12.931  0.00  0.00    +0.000 HD
BRANCH  20  23
ATOM     23  C   UNL     1      -0.999  10.341 -13.871  0.00  0.00    +0.000 C 
ATOM     24  H   UNL     1      -1.621  10.330 -14.774  0.00  0.00    +0.000 HD
ATOM     25  H   UNL     1      -0.562  11.343 -13.792  0.00  0.00    +0.000 HD
BRANCH  23  26
ATOM     26  C   UNL     1       0.115   9.302 -14.001  0.00  0.00    +0.000 C 
ATOM     27  H   UNL     1       0.939   9.552 -13.322  0.00  0.00    +0.000 HD
ATOM     28  H   UNL     1      -0.260   8.315 -13.706  0.00  0.00    +0.000 HD
BRANCH  26  29
ATOM     29  C   UNL     1       0.648   9.231 -15.423  0.00  0.00    +0.000 C 
ATOM     30  H   UNL     1       0.692   8.195 -15.774  0.00  0.00    +0.000 HD
ATOM     31  H   UNL     1       1.659   9.649 -15.470  0.00  0.00    +0.000 HD
ATOM     32  H   UNL     1       0.013   9.800 -16.109  0.00  0.00    +0.000 HD
ENDBRANCH  26  29
ENDBRANCH  23  26
ENDBRANCH  20  23
ENDBRANCH   1  20
TORSDOF 10
ENDMDL
MODEL 10
REMARK VINA RESULT:    -3.692     19.161     21.724
REMARK INTER + INTRA:          -6.553
REMARK INTER:                  -5.634
REMARK INTRA:                  -0.919
REMARK UNBOUND:                -0.919
REMARK  Name = 2969
REMARK  10 active torsions:
REMARK  status: ('A' for Active; 'I' for Inactive)
REMARK    1  A    between atoms: O_1  and  C_12
REMARK    2  A    between atoms: C_3  and  C_4
REMARK    3  A    between atoms: C_3  and  C_5
REMARK    4  A    between atoms: C_4  and  C_6
REMARK    5  A    between atoms: C_5  and  C_7
REMARK    6  A    between atoms: C_6  and  C_8
REMARK    7  A    between atoms: C_7  and  C_9
REMARK    8  A    between atoms: C_8  and  C_10
REMARK    9  A    between atoms: C_9  and  C_11
REMARK   10  A    between atoms: C_10  and  C_12
REMARK                            x       y       z     vdW  Elec       q    Type
REMARK                         _______ _______ _______ _____ _____    ______ ____
ROOT
ATOM      1  C   UNL     1      -5.728 -18.312   4.031  0.00  0.00    +0.000 C 
ATOM      2  H   UNL     1      -6.440 -17.611   4.484  0.00  0.00    +0.000 HD
ATOM      3  H   UNL     1      -5.676 -19.177   4.704  0.00  0.00    +0.000 HD
ENDROOT
BRANCH   1   4
ATOM      4  C   UNL     1      -4.347 -17.649   3.991  0.00  0.00    +0.000 C 
ATOM      5  H   UNL     1      -3.878 -17.889   3.029  0.00  0.00    +0.000 HD
ATOM      6  H   UNL     1      -3.717 -18.107   4.764  0.00  0.00    +0.000 HD
BRANCH   4   7
ATOM      7  C   UNL     1      -4.332 -16.130   4.185  0.00  0.00    +0.000 C 
ATOM      8  H   UNL     1      -5.318 -15.802   4.533  0.00  0.00    +0.000 HD
ATOM      9  H   UNL     1      -3.615 -15.881   4.977  0.00  0.00    +0.000 HD
BRANCH   7  10
ATOM     10  C   UNL     1      -3.970 -15.359   2.910  0.00  0.00    +0.000 C 
ATOM     11  H   UNL     1      -3.655 -14.342   3.174  0.00  0.00    +0.000 HD
ATOM     12  H   UNL     1      -4.862 -15.256   2.281  0.00  0.00    +0.000 HD
BRANCH  10  13
ATOM     13  C   UNL     1      -2.864 -16.048   2.109  0.00  0.00    +0.000 C 
ATOM     14  H   UNL     1      -2.520 -16.937   2.650  0.00  0.00    +0.000 HD
ATOM     15  H   UNL     1      -3.257 -16.358   1.134  0.00  0.00    +0.000 HD
BRANCH  13  17
ATOM     16  O   UNL     1      -0.494 -15.513   1.925  0.00  0.00    +0.000 OA
ATOM     17  C   UNL     1      -1.664 -15.161   1.862  0.00  0.00    +0.000 C 
BRANCH  17  18
ATOM     18  O   UNL     1      -2.041 -13.898   1.531  0.00  0.00    +0.000 OA
ATOM     19  H   UNL     1      -2.984 -13.857   1.264  0.00  0.00    +0.000 HD
ENDBRANCH  17  18
ENDBRANCH  13  17
ENDBRANCH  10  13
ENDBRANCH   7  10
ENDBRANCH   4   7
ENDBRANCH   1   4
BRANCH   1  20
ATOM     20  C   UNL     1      -6.283 -18.777   2.681  0.00  0.00    +0.000 C 
ATOM     21  H   UNL     1      -7.006 -19.583   2.852  0.00  0.00    +0.000 HD
ATOM     22  H   UNL     1      -5.464 -19.207   2.090  0.00  0.00    +0.000 HD
BRANCH  20  23
ATOM     23  C   UNL     1      -6.954 -17.657   1.883  0.00  0.00    +0.000 C 
ATOM     24  H   UNL     1      -6.192 -16.965   1.507  0.00  0.00    +0.000 HD
ATOM     25  H   UNL     1      -7.462 -18.084   1.011  0.00  0.00    +0.000 HD
BRANCH  23  26
ATOM     26  C   UNL     1      -7.962 -16.893   2.743  0.00  0.00    +0.000 C 
ATOM     27  H   UNL     1      -8.981 -17.101   2.395  0.00  0.00    +0.000 HD
ATOM     28  H   UNL     1      -7.899 -17.235   3.783  0.00  0.00    +0.000 HD
BRANCH  26  29
ATOM     29  C   UNL     1      -7.716 -15.395   2.692  0.00  0.00    +0.000 C 
ATOM     30  H   UNL     1      -8.318 -14.925   1.908  0.00  0.00    +0.000 HD
ATOM     31  H   UNL     1      -6.661 -15.191   2.479  0.00  0.00    +0.000 HD
ATOM     32  H   UNL     1      -7.966 -14.923   3.647  0.00  0.00    +0.000 HD
ENDBRANCH  26  29
ENDBRANCH  23  26
ENDBRANCH  20  23
ENDBRANCH   1  20
TORSDOF 10
ENDMDL
