MODEL 1
REMARK VINA RESULT:    -4.348      0.000      0.000
REMARK INTER + INTRA:          -6.580
REMARK INTER:                  -6.226
REMARK INTRA:                  -0.355
REMARK UNBOUND:                -0.199
REMARK  Name = 31249
REMARK  9 active torsions:
REMARK  status: ('A' for Active; 'I' for Inactive)
REMARK    1  A    between atoms: O_1  and  C_7
REMARK    2  A    between atoms: O_1  and  C_9
REMARK    3  A    between atoms: O_2  and  C_8
REMARK    4  A    between atoms: O_2  and  C_10
REMARK    5  A    between atoms: C_5  and  C_6
REMARK    6  A    between atoms: C_5  and  C_7
REMARK    7  A    between atoms: C_6  and  C_8
REMARK    8  A    between atoms: C_9  and  C_11
REMARK    9  A    between atoms: C_10  and  C_12
REMARK                            x       y       z     vdW  Elec       q    Type
REMARK                         _______ _______ _______ _____ _____    ______ ____
ROOT
ATOM      1  C   UNL     1       5.243  11.846   0.246  0.00  0.00    +0.000 C 
ATOM      2  H   UNL     1       5.117  12.917   0.043  0.00  0.00    +0.000 HD
ATOM      3  H   UNL     1       5.805  11.734   1.180  0.00  0.00    +0.000 HD
ENDROOT
BRANCH   1   4
ATOM      4  C   UNL     1       6.016  11.194  -0.897  0.00  0.00    +0.000 C 
ATOM      5  H   UNL     1       5.416  10.387  -1.334  0.00  0.00    +0.000 HD
ATOM      6  H   UNL     1       6.218  11.937  -1.678  0.00  0.00    +0.000 HD
BRANCH   4   8
ATOM      7  O   UNL     1       7.643  10.349   0.706  0.00  0.00    +0.000 OA
ATOM      8  C   UNL     1       7.339  10.607  -0.450  0.00  0.00    +0.000 C 
BRANCH   8   9
ATOM      9  O   UNL     1       8.133  10.424  -1.546  0.00  0.00    +0.000 OA
BRANCH   9  10
ATOM     10  C   UNL     1       8.467   9.064  -1.843  0.00  0.00    +0.000 C 
ATOM     11  H   UNL     1       7.876   8.396  -1.208  0.00  0.00    +0.000 HD
ATOM     12  H   UNL     1       8.247   8.855  -2.896  0.00  0.00    +0.000 HD
BRANCH  10  13
ATOM     13  C   UNL     1       9.942   8.850  -1.577  0.00  0.00    +0.000 C 
ATOM     14  H   UNL     1      10.107   8.489  -0.558  0.00  0.00    +0.000 HD
ATOM     15  H   UNL     1      10.359   8.123  -2.281  0.00  0.00    +0.000 HD
ATOM     16  H   UNL     1      10.499   9.783  -1.716  0.00  0.00    +0.000 HD
ENDBRANCH  10  13
ENDBRANCH   9  10
ENDBRANCH   8   9
ENDBRANCH   4   8
ENDBRANCH   1   4
BRANCH   1  18
ATOM     17  O   UNL     1       2.838  11.870   0.620  0.00  0.00    +0.000 OA
ATOM     18  C   UNL     1       3.871  11.239   0.446  0.00  0.00    +0.000 C 
BRANCH  18  19
ATOM     19  O   UNL     1       3.981   9.877   0.410  0.00  0.00    +0.000 OA
BRANCH  19  20
ATOM     20  C   UNL     1       4.427   9.263   1.623  0.00  0.00    +0.000 C 
ATOM     21  H   UNL     1       4.940   8.323   1.390  0.00  0.00    +0.000 HD
ATOM     22  H   UNL     1       5.119   9.937   2.141  0.00  0.00    +0.000 HD
BRANCH  20  23
ATOM     23  C   UNL     1       3.228   8.986   2.505  0.00  0.00    +0.000 C 
ATOM     24  H   UNL     1       2.804   8.001   2.290  0.00  0.00    +0.000 HD
ATOM     25  H   UNL     1       3.509   9.027   3.563  0.00  0.00    +0.000 HD
ATOM     26  H   UNL     1       2.454   9.745   2.352  0.00  0.00    +0.000 HD
ENDBRANCH  20  23
ENDBRANCH  19  20
ENDBRANCH  18  19
ENDBRANCH   1  18
TORSDOF 9
ENDMDL
MODEL 2
REMARK VINA RESULT:    -4.340      2.157      3.986
REMARK INTER + INTRA:          -6.569
REMARK INTER:                  -6.106
REMARK INTRA:                  -0.463
REMARK UNBOUND:                -0.199
REMARK  Name = 31249
REMARK  9 active torsions:
REMARK  status: ('A' for Active; 'I' for Inactive)
REMARK    1  A    between atoms: O_1  and  C_7
REMARK    2  A    between atoms: O_1  and  C_9
REMARK    3  A    between atoms: O_2  and  C_8
REMARK    4  A    between atoms: O_2  and  C_10
REMARK    5  A    between atoms: C_5  and  C_6
REMARK    6  A    between atoms: C_5  and  C_7
REMARK    7  A    between atoms: C_6  and  C_8
REMARK    8  A    between atoms: C_9  and  C_11
REMARK    9  A    between atoms: C_10  and  C_12
REMARK                            x       y       z     vdW  Elec       q    Type
REMARK                         _______ _______ _______ _____ _____    ______ ____
ROOT
ATOM      1  C   UNL     1       7.370  10.607   0.270  0.00  0.00    +0.000 C 
ATOM      2  H   UNL     1       8.293  10.861  -0.265  0.00  0.00    +0.000 HD
ATOM      3  H   UNL     1       7.394  11.092   1.252  0.00  0.00    +0.000 HD
ENDROOT
BRANCH   1   4
ATOM      4  C   UNL     1       7.279   9.094   0.449  0.00  0.00    +0.000 C 
ATOM      5  H   UNL     1       6.437   8.704  -0.136  0.00  0.00    +0.000 HD
ATOM      6  H   UNL     1       8.200   8.623   0.085  0.00  0.00    +0.000 HD
BRANCH   4   8
ATOM      7  O   UNL     1       7.860   8.910   2.806  0.00  0.00    +0.000 OA
ATOM      8  C   UNL     1       7.078   8.687   1.893  0.00  0.00    +0.000 C 
BRANCH   8   9
ATOM      9  O   UNL     1       5.888   8.024   2.003  0.00  0.00    +0.000 OA
BRANCH   9  10
ATOM     10  C   UNL     1       5.253   8.108   3.283  0.00  0.00    +0.000 C 
ATOM     11  H   UNL     1       5.863   8.722   3.953  0.00  0.00    +0.000 HD
ATOM     12  H   UNL     1       4.263   8.564   3.170  0.00  0.00    +0.000 HD
BRANCH  10  13
ATOM     13  C   UNL     1       5.111   6.713   3.854  0.00  0.00    +0.000 C 
ATOM     14  H   UNL     1       6.088   6.237   3.969  0.00  0.00    +0.000 HD
ATOM     15  H   UNL     1       4.616   6.745   4.830  0.00  0.00    +0.000 HD
ATOM     16  H   UNL     1       4.487   6.091   3.203  0.00  0.00    +0.000 HD
ENDBRANCH  10  13
ENDBRANCH   9  10
ENDBRANCH   8   9
ENDBRANCH   4   8
ENDBRANCH   1   4
BRANCH   1  18
ATOM     17  O   UNL     1       5.943  10.928  -1.677  0.00  0.00    +0.000 OA
ATOM     18  C   UNL     1       6.202  11.176  -0.507  0.00  0.00    +0.000 C 
BRANCH  18  19
ATOM     19  O   UNL     1       5.495  12.014   0.309  0.00  0.00    +0.000 OA
BRANCH  19  20
ATOM     20  C   UNL     1       4.073  11.857   0.270  0.00  0.00    +0.000 C 
ATOM     21  H   UNL     1       3.597  12.733   0.725  0.00  0.00    +0.000 HD
ATOM     22  H   UNL     1       3.744  11.763  -0.771  0.00  0.00    +0.000 HD
BRANCH  20  23
ATOM     23  C   UNL     1       3.694  10.610   1.041  0.00  0.00    +0.000 C 
ATOM     24  H   UNL     1       2.877  10.078   0.547  0.00  0.00    +0.000 HD
ATOM     25  H   UNL     1       4.553   9.936   1.130  0.00  0.00    +0.000 HD
ATOM     26  H   UNL     1       3.385  10.867   2.059  0.00  0.00    +0.000 HD
ENDBRANCH  20  23
ENDBRANCH  19  20
ENDBRANCH  18  19
ENDBRANCH   1  18
TORSDOF 9
ENDMDL
MODEL 3
REMARK VINA RESULT:    -4.181     29.359     30.444
REMARK INTER + INTRA:          -6.336
REMARK INTER:                  -5.818
REMARK INTRA:                  -0.518
REMARK UNBOUND:                -0.199
REMARK  Name = 31249
REMARK  9 active torsions:
REMARK  status: ('A' for Active; 'I' for Inactive)
REMARK    1  A    between atoms: O_1  and  C_7
REMARK    2  A    between atoms: O_1  and  C_9
REMARK    3  A    between atoms: O_2  and  C_8
REMARK    4  A    between atoms: O_2  and  C_10
REMARK    5  A    between atoms: C_5  and  C_6
REMARK    6  A    between atoms: C_5  and  C_7
REMARK    7  A    between atoms: C_6  and  C_8
REMARK    8  A    between atoms: C_9  and  C_11
REMARK    9  A    between atoms: C_10  and  C_12
REMARK                            x       y       z     vdW  Elec       q    Type
REMARK                         _______ _______ _______ _____ _____    ______ ____
ROOT
ATOM      1  C   UNL     1     -21.388  -4.268   4.732  0.00  0.00    +0.000 C 
ATOM      2  H   UNL     1     -21.319  -5.312   5.061  0.00  0.00    +0.000 HD
ATOM      3  H   UNL     1     -22.167  -4.198   3.964  0.00  0.00    +0.000 HD
ENDROOT
BRANCH   1   4
ATOM      4  C   UNL     1     -20.052  -3.823   4.146  0.00  0.00    +0.000 C 
ATOM      5  H   UNL     1     -20.213  -3.381   3.155  0.00  0.00    +0.000 HD
ATOM      6  H   UNL     1     -19.598  -3.064   4.794  0.00  0.00    +0.000 HD
BRANCH   4   8
ATOM      7  O   UNL     1     -18.562  -5.587   4.919  0.00  0.00    +0.000 OA
ATOM      8  C   UNL     1     -19.069  -4.965   3.997  0.00  0.00    +0.000 C 
BRANCH   8   9
ATOM      9  O   UNL     1     -18.839  -5.178   2.667  0.00  0.00    +0.000 OA
BRANCH   9  10
ATOM     10  C   UNL     1     -19.359  -6.404   2.141  0.00  0.00    +0.000 C 
ATOM     11  H   UNL     1     -18.624  -6.851   1.462  0.00  0.00    +0.000 HD
ATOM     12  H   UNL     1     -19.562  -7.098   2.964  0.00  0.00    +0.000 HD
BRANCH  10  13
ATOM     13  C   UNL     1     -20.640  -6.114   1.389  0.00  0.00    +0.000 C 
ATOM     14  H   UNL     1     -20.673  -5.072   1.061  0.00  0.00    +0.000 HD
ATOM     15  H   UNL     1     -20.727  -6.763   0.511  0.00  0.00    +0.000 HD
ATOM     16  H   UNL     1     -21.512  -6.316   2.020  0.00  0.00    +0.000 HD
ENDBRANCH  10  13
ENDBRANCH   9  10
ENDBRANCH   8   9
ENDBRANCH   4   8
ENDBRANCH   1   4
BRANCH   1  18
ATOM     17  O   UNL     1     -22.975  -3.167   6.215  0.00  0.00    +0.000 OA
ATOM     18  C   UNL     1     -21.818  -3.427   5.915  0.00  0.00    +0.000 C 
BRANCH  18  19
ATOM     19  O   UNL     1     -20.703  -3.002   6.583  0.00  0.00    +0.000 OA
BRANCH  19  20
ATOM     20  C   UNL     1     -20.848  -1.773   7.303  0.00  0.00    +0.000 C 
ATOM     21  H   UNL     1     -21.905  -1.613   7.542  0.00  0.00    +0.000 HD
ATOM     22  H   UNL     1     -20.267  -1.824   8.231  0.00  0.00    +0.000 HD
BRANCH  20  23
ATOM     23  C   UNL     1     -20.340  -0.636   6.442  0.00  0.00    +0.000 C 
ATOM     24  H   UNL     1     -20.422   0.319   6.968  0.00  0.00    +0.000 HD
ATOM     25  H   UNL     1     -19.292  -0.799   6.167  0.00  0.00    +0.000 HD
ATOM     26  H   UNL     1     -20.908  -0.576   5.509  0.00  0.00    +0.000 HD
ENDBRANCH  20  23
ENDBRANCH  19  20
ENDBRANCH  18  19
ENDBRANCH   1  18
TORSDOF 9
ENDMDL
MODEL 4
REMARK VINA RESULT:    -4.175      1.817      4.868
REMARK INTER + INTRA:          -6.327
REMARK INTER:                  -5.998
REMARK INTRA:                  -0.329
REMARK UNBOUND:                -0.199
REMARK  Name = 31249
REMARK  9 active torsions:
REMARK  status: ('A' for Active; 'I' for Inactive)
REMARK    1  A    between atoms: O_1  and  C_7
REMARK    2  A    between atoms: O_1  and  C_9
REMARK    3  A    between atoms: O_2  and  C_8
REMARK    4  A    between atoms: O_2  and  C_10
REMARK    5  A    between atoms: C_5  and  C_6
REMARK    6  A    between atoms: C_5  and  C_7
REMARK    7  A    between atoms: C_6  and  C_8
REMARK    8  A    between atoms: C_9  and  C_11
REMARK    9  A    between atoms: C_10  and  C_12
REMARK                            x       y       z     vdW  Elec       q    Type
REMARK                         _______ _______ _______ _____ _____    ______ ____
ROOT
ATOM      1  C   UNL     1       5.551   8.335   2.446  0.00  0.00    +0.000 C 
ATOM      2  H   UNL     1       5.681   7.452   3.083  0.00  0.00    +0.000 HD
ATOM      3  H   UNL     1       5.713   9.230   3.058  0.00  0.00    +0.000 HD
ENDROOT
BRANCH   1   4
ATOM      4  C   UNL     1       4.135   8.355   1.877  0.00  0.00    +0.000 C 
ATOM      5  H   UNL     1       4.066   7.653   1.038  0.00  0.00    +0.000 HD
ATOM      6  H   UNL     1       3.423   8.043   2.649  0.00  0.00    +0.000 HD
BRANCH   4   8
ATOM      7  O   UNL     1       3.210  10.600   2.061  0.00  0.00    +0.000 OA
ATOM      8  C   UNL     1       3.723   9.725   1.379  0.00  0.00    +0.000 C 
BRANCH   8   9
ATOM      9  O   UNL     1       4.013   9.815   0.047  0.00  0.00    +0.000 OA
BRANCH   9  10
ATOM     10  C   UNL     1       3.973  11.136  -0.504  0.00  0.00    +0.000 C 
ATOM     11  H   UNL     1       3.544  11.825   0.232  0.00  0.00    +0.000 HD
ATOM     12  H   UNL     1       4.989  11.458  -0.755  0.00  0.00    +0.000 HD
BRANCH  10  13
ATOM     13  C   UNL     1       3.117  11.123  -1.753  0.00  0.00    +0.000 C 
ATOM     14  H   UNL     1       2.098  10.798  -1.525  0.00  0.00    +0.000 HD
ATOM     15  H   UNL     1       3.078  12.120  -2.203  0.00  0.00    +0.000 HD
ATOM     16  H   UNL     1       3.543  10.452  -2.506  0.00  0.00    +0.000 HD
ENDBRANCH  10  13
ENDBRANCH   9  10
ENDBRANCH   8   9
ENDBRANCH   4   8
ENDBRANCH   1   4
BRANCH   1  18
ATOM     17  O   UNL     1       6.655   7.509   0.439  0.00  0.00    +0.000 OA
ATOM     18  C   UNL     1       6.614   8.303   1.369  0.00  0.00    +0.000 C 
BRANCH  18  19
ATOM     19  O   UNL     1       7.521   9.296   1.614  0.00  0.00    +0.000 OA
BRANCH  19  20
ATOM     20  C   UNL     1       8.325   9.685   0.495  0.00  0.00    +0.000 C 
ATOM     21  H   UNL     1       9.237  10.174   0.854  0.00  0.00    +0.000 HD
ATOM     22  H   UNL     1       8.592   8.797  -0.089  0.00  0.00    +0.000 HD
BRANCH  20  23
ATOM     23  C   UNL     1       7.535  10.646  -0.368  0.00  0.00    +0.000 C 
ATOM     24  H   UNL     1       8.193  11.385  -0.833  0.00  0.00    +0.000 HD
ATOM     25  H   UNL     1       6.998  10.105  -1.155  0.00  0.00    +0.000 HD
ATOM     26  H   UNL     1       6.782  11.170   0.229  0.00  0.00    +0.000 HD
ENDBRANCH  20  23
ENDBRANCH  19  20
ENDBRANCH  18  19
ENDBRANCH   1  18
TORSDOF 9
ENDMDL
MODEL 5
REMARK VINA RESULT:    -4.146     29.930     32.469
REMARK INTER + INTRA:          -6.284
REMARK INTER:                  -5.782
REMARK INTRA:                  -0.503
REMARK UNBOUND:                -0.199
REMARK  Name = 31249
REMARK  9 active torsions:
REMARK  status: ('A' for Active; 'I' for Inactive)
REMARK    1  A    between atoms: O_1  and  C_7
REMARK    2  A    between atoms: O_1  and  C_9
REMARK    3  A    between atoms: O_2  and  C_8
REMARK    4  A    between atoms: O_2  and  C_10
REMARK    5  A    between atoms: C_5  and  C_6
REMARK    6  A    between atoms: C_5  and  C_7
REMARK    7  A    between atoms: C_6  and  C_8
REMARK    8  A    between atoms: C_9  and  C_11
REMARK    9  A    between atoms: C_10  and  C_12
REMARK                            x       y       z     vdW  Elec       q    Type
REMARK                         _______ _______ _______ _____ _____    ______ ____
ROOT
ATOM      1  C   UNL     1     -10.613 -12.710  17.298  0.00  0.00    +0.000 C 
ATOM      2  H   UNL     1     -10.264 -13.241  16.404  0.00  0.00    +0.000 HD
ATOM      3  H   UNL     1     -11.569 -13.147  17.609  0.00  0.00    +0.000 HD
ENDROOT
BRANCH   1   4
ATOM      4  C   UNL     1     -10.810 -11.232  16.974  0.00  0.00    +0.000 C 
ATOM      5  H   UNL     1     -11.876 -11.028  16.816  0.00  0.00    +0.000 HD
ATOM      6  H   UNL     1     -10.462 -10.620  17.814  0.00  0.00    +0.000 HD
BRANCH   4   8
ATOM      7  O   UNL     1     -10.084  -9.678  15.245  0.00  0.00    +0.000 OA
ATOM      8  C   UNL     1     -10.060 -10.799  15.732  0.00  0.00    +0.000 C 
BRANCH   8   9
ATOM      9  O   UNL     1      -9.362 -11.869  15.244  0.00  0.00    +0.000 OA
BRANCH   9  10
ATOM     10  C   UNL     1      -8.069 -11.568  14.710  0.00  0.00    +0.000 C 
ATOM     11  H   UNL     1      -7.803 -12.314  13.953  0.00  0.00    +0.000 HD
ATOM     12  H   UNL     1      -8.085 -10.573  14.250  0.00  0.00    +0.000 HD
BRANCH  10  13
ATOM     13  C   UNL     1      -7.054 -11.594  15.833  0.00  0.00    +0.000 C 
ATOM     14  H   UNL     1      -6.130 -11.088  15.537  0.00  0.00    +0.000 HD
ATOM     15  H   UNL     1      -7.454 -11.104  16.726  0.00  0.00    +0.000 HD
ATOM     16  H   UNL     1      -6.818 -12.626  16.115  0.00  0.00    +0.000 HD
ENDBRANCH  10  13
ENDBRANCH   9  10
ENDBRANCH   8   9
ENDBRANCH   4   8
ENDBRANCH   1   4
BRANCH   1  18
ATOM     17  O   UNL     1      -8.560 -13.559  18.293  0.00  0.00    +0.000 OA
ATOM     18  C   UNL     1      -9.608 -12.938  18.406  0.00  0.00    +0.000 C 
BRANCH  18  19
ATOM     19  O   UNL     1     -10.068 -12.345  19.549  0.00  0.00    +0.000 OA
BRANCH  19  20
ATOM     20  C   UNL     1     -11.178 -12.996  20.176  0.00  0.00    +0.000 C 
ATOM     21  H   UNL     1     -11.982 -12.270  20.339  0.00  0.00    +0.000 HD
ATOM     22  H   UNL     1     -11.541 -13.803  19.529  0.00  0.00    +0.000 HD
BRANCH  20  23
ATOM     23  C   UNL     1     -10.727 -13.569  21.503  0.00  0.00    +0.000 C 
ATOM     24  H   UNL     1     -10.121 -12.846  22.055  0.00  0.00    +0.000 HD
ATOM     25  H   UNL     1     -11.592 -13.847  22.116  0.00  0.00    +0.000 HD
ATOM     26  H   UNL     1     -10.140 -14.479  21.350  0.00  0.00    +0.000 HD
ENDBRANCH  20  23
ENDBRANCH  19  20
ENDBRANCH  18  19
ENDBRANCH   1  18
TORSDOF 9
ENDMDL
MODEL 6
REMARK VINA RESULT:    -4.132     13.392     14.688
REMARK INTER + INTRA:          -6.264
REMARK INTER:                  -5.872
REMARK INTRA:                  -0.391
REMARK UNBOUND:                -0.199
REMARK  Name = 31249
REMARK  9 active torsions:
REMARK  status: ('A' for Active; 'I' for Inactive)
REMARK    1  A    between atoms: O_1  and  C_7
REMARK    2  A    between atoms: O_1  and  C_9
REMARK    3  A    between atoms: O_2  and  C_8
REMARK    4  A    between atoms: O_2  and  C_10
REMARK    5  A    between atoms: C_5  and  C_6
REMARK    6  A    between atoms: C_5  and  C_7
REMARK    7  A    between atoms: C_6  and  C_8
REMARK    8  A    between atoms: C_9  and  C_11
REMARK    9  A    between atoms: C_10  and  C_12
REMARK                            x       y       z     vdW  Elec       q    Type
REMARK                         _______ _______ _______ _____ _____    ______ ____
ROOT
ATOM      1  C   UNL     1      -1.605   9.888 -11.727  0.00  0.00    +0.000 C 
ATOM      2  H   UNL     1      -1.680  10.905 -12.132  0.00  0.00    +0.000 HD
ATOM      3  H   UNL     1      -2.559   9.376 -11.898  0.00  0.00    +0.000 HD
ENDROOT
BRANCH   1   4
ATOM      4  C   UNL     1      -1.322   9.952 -10.228  0.00  0.00    +0.000 C 
ATOM      5  H   UNL     1      -0.339   9.511 -10.021  0.00  0.00    +0.000 HD
ATOM      6  H   UNL     1      -1.308  10.998  -9.899  0.00  0.00    +0.000 HD
BRANCH   4   8
ATOM      7  O   UNL     1      -3.078   9.714  -8.559  0.00  0.00    +0.000 OA
ATOM      8  C   UNL     1      -2.353   9.210  -9.405  0.00  0.00    +0.000 C 
BRANCH   8   9
ATOM      9  O   UNL     1      -2.333   7.891  -9.758  0.00  0.00    +0.000 OA
BRANCH   9  10
ATOM     10  C   UNL     1      -3.352   7.079  -9.164  0.00  0.00    +0.000 C 
ATOM     11  H   UNL     1      -2.898   6.176  -8.741  0.00  0.00    +0.000 HD
ATOM     12  H   UNL     1      -3.851   7.643  -8.368  0.00  0.00    +0.000 HD
BRANCH  10  13
ATOM     13  C   UNL     1      -4.359   6.696 -10.227  0.00  0.00    +0.000 C 
ATOM     14  H   UNL     1      -5.323   6.440  -9.779  0.00  0.00    +0.000 HD
ATOM     15  H   UNL     1      -4.505   7.519 -10.934  0.00  0.00    +0.000 HD
ATOM     16  H   UNL     1      -4.000   5.839 -10.808  0.00  0.00    +0.000 HD
ENDBRANCH  10  13
ENDBRANCH   9  10
ENDBRANCH   8   9
ENDBRANCH   4   8
ENDBRANCH   1   4
BRANCH   1  18
ATOM     17  O   UNL     1      -0.152   8.010 -12.264  0.00  0.00    +0.000 OA
ATOM     18  C   UNL     1      -0.530   9.150 -12.495  0.00  0.00    +0.000 C 
BRANCH  18  19
ATOM     19  O   UNL     1      -0.050   9.969 -13.479  0.00  0.00    +0.000 OA
BRANCH  19  20
ATOM     20  C   UNL     1       0.539   9.303 -14.601  0.00  0.00    +0.000 C 
ATOM     21  H   UNL     1       1.274   9.964 -15.073  0.00  0.00    +0.000 HD
ATOM     22  H   UNL     1       1.037   8.387 -14.262  0.00  0.00    +0.000 HD
BRANCH  20  23
ATOM     23  C   UNL     1      -0.550   8.956 -15.594  0.00  0.00    +0.000 C 
ATOM     24  H   UNL     1      -0.128   8.761 -16.584  0.00  0.00    +0.000 HD
ATOM     25  H   UNL     1      -1.104   8.070 -15.265  0.00  0.00    +0.000 HD
ATOM     26  H   UNL     1      -1.273   9.773 -15.673  0.00  0.00    +0.000 HD
ENDBRANCH  20  23
ENDBRANCH  19  20
ENDBRANCH  18  19
ENDBRANCH   1  18
TORSDOF 9
ENDMDL
MODEL 7
REMARK VINA RESULT:    -4.009     13.984     14.593
REMARK INTER + INTRA:          -6.083
REMARK INTER:                  -5.678
REMARK INTRA:                  -0.406
REMARK UNBOUND:                -0.199
REMARK  Name = 31249
REMARK  9 active torsions:
REMARK  status: ('A' for Active; 'I' for Inactive)
REMARK    1  A    between atoms: O_1  and  C_7
REMARK    2  A    between atoms: O_1  and  C_9
REMARK    3  A    between atoms: O_2  and  C_8
REMARK    4  A    between atoms: O_2  and  C_10
REMARK    5  A    between atoms: C_5  and  C_6
REMARK    6  A    between atoms: C_5  and  C_7
REMARK    7  A    between atoms: C_6  and  C_8
REMARK    8  A    between atoms: C_9  and  C_11
REMARK    9  A    between atoms: C_10  and  C_12
REMARK                            x       y       z     vdW  Elec       q    Type
REMARK                         _______ _______ _______ _____ _____    ______ ____
ROOT
ATOM      1  C   UNL     1      -2.496   6.963 -11.048  0.00  0.00    +0.000 C 
ATOM      2  H   UNL     1      -2.436   6.051 -10.441  0.00  0.00    +0.000 HD
ATOM      3  H   UNL     1      -3.443   6.949 -11.600  0.00  0.00    +0.000 HD
ENDROOT
BRANCH   1   4
ATOM      4  C   UNL     1      -1.331   7.003 -12.032  0.00  0.00    +0.000 C 
ATOM      5  H   UNL     1      -0.571   7.709 -11.674  0.00  0.00    +0.000 HD
ATOM      6  H   UNL     1      -0.873   6.010 -12.104  0.00  0.00    +0.000 HD
BRANCH   4   8
ATOM      7  O   UNL     1      -2.288   6.710 -14.252  0.00  0.00    +0.000 OA
ATOM      8  C   UNL     1      -1.753   7.431 -13.422  0.00  0.00    +0.000 C 
BRANCH   8   9
ATOM      9  O   UNL     1      -1.431   8.748 -13.594  0.00  0.00    +0.000 OA
BRANCH   9  10
ATOM     10  C   UNL     1      -0.042   9.065 -13.451  0.00  0.00    +0.000 C 
ATOM     11  H   UNL     1       0.063   9.996 -12.884  0.00  0.00    +0.000 HD
ATOM     12  H   UNL     1       0.465   8.255 -12.917  0.00  0.00    +0.000 HD
BRANCH  10  13
ATOM     13  C   UNL     1       0.569   9.232 -14.826  0.00  0.00    +0.000 C 
ATOM     14  H   UNL     1       0.196   8.469 -15.515  0.00  0.00    +0.000 HD
ATOM     15  H   UNL     1       0.335  10.221 -15.235  0.00  0.00    +0.000 HD
ATOM     16  H   UNL     1       1.660   9.160 -14.775  0.00  0.00    +0.000 HD
ENDBRANCH  10  13
ENDBRANCH   9  10
ENDBRANCH   8   9
ENDBRANCH   4   8
ENDBRANCH   1   4
BRANCH   1  18
ATOM     17  O   UNL     1      -1.874   9.183 -10.266  0.00  0.00    +0.000 OA
ATOM     18  C   UNL     1      -2.514   8.152 -10.112  0.00  0.00    +0.000 C 
BRANCH  18  19
ATOM     19  O   UNL     1      -3.354   7.880  -9.068  0.00  0.00    +0.000 OA
BRANCH  19  20
ATOM     20  C   UNL     1      -3.601   6.492  -8.823  0.00  0.00    +0.000 C 
ATOM     21  H   UNL     1      -3.172   5.896  -9.635  0.00  0.00    +0.000 HD
ATOM     22  H   UNL     1      -3.138   6.201  -7.873  0.00  0.00    +0.000 HD
BRANCH  20  23
ATOM     23  C   UNL     1      -5.096   6.263  -8.754  0.00  0.00    +0.000 C 
ATOM     24  H   UNL     1      -5.498   6.007  -9.738  0.00  0.00    +0.000 HD
ATOM     25  H   UNL     1      -5.330   5.452  -8.055  0.00  0.00    +0.000 HD
ATOM     26  H   UNL     1      -5.607   7.158  -8.386  0.00  0.00    +0.000 HD
ENDBRANCH  20  23
ENDBRANCH  19  20
ENDBRANCH  18  19
ENDBRANCH   1  18
TORSDOF 9
ENDMDL
MODEL 8
REMARK VINA RESULT:    -3.996     15.003     17.377
REMARK INTER + INTRA:          -6.064
REMARK INTER:                  -5.706
REMARK INTRA:                  -0.358
REMARK UNBOUND:                -0.199
REMARK  Name = 31249
REMARK  9 active torsions:
REMARK  status: ('A' for Active; 'I' for Inactive)
REMARK    1  A    between atoms: O_1  and  C_7
REMARK    2  A    between atoms: O_1  and  C_9
REMARK    3  A    between atoms: O_2  and  C_8
REMARK    4  A    between atoms: O_2  and  C_10
REMARK    5  A    between atoms: C_5  and  C_6
REMARK    6  A    between atoms: C_5  and  C_7
REMARK    7  A    between atoms: C_6  and  C_8
REMARK    8  A    between atoms: C_9  and  C_11
REMARK    9  A    between atoms: C_10  and  C_12
REMARK                            x       y       z     vdW  Elec       q    Type
REMARK                         _______ _______ _______ _____ _____    ______ ____
ROOT
ATOM      1  C   UNL     1      -9.413   9.447   9.359  0.00  0.00    +0.000 C 
ATOM      2  H   UNL     1     -10.356   8.893   9.451  0.00  0.00    +0.000 HD
ATOM      3  H   UNL     1      -9.601  10.495   9.620  0.00  0.00    +0.000 HD
ENDROOT
BRANCH   1   4
ATOM      4  C   UNL     1      -8.904   9.362   7.923  0.00  0.00    +0.000 C 
ATOM      5  H   UNL     1      -7.995   8.749   7.891  0.00  0.00    +0.000 HD
ATOM      6  H   UNL     1      -9.663   8.888   7.290  0.00  0.00    +0.000 HD
BRANCH   4   8
ATOM      7  O   UNL     1      -7.996  11.621   7.921  0.00  0.00    +0.000 OA
ATOM      8  C   UNL     1      -8.579  10.719   7.336  0.00  0.00    +0.000 C 
BRANCH   8   9
ATOM      9  O   UNL     1      -9.049  10.769   6.054  0.00  0.00    +0.000 OA
BRANCH   9  10
ATOM     10  C   UNL     1      -8.555  11.852   5.259  0.00  0.00    +0.000 C 
ATOM     11  H   UNL     1      -9.342  12.192   4.576  0.00  0.00    +0.000 HD
ATOM     12  H   UNL     1      -8.259  12.680   5.913  0.00  0.00    +0.000 HD
BRANCH  10  13
ATOM     13  C   UNL     1      -7.359  11.374   4.464  0.00  0.00    +0.000 C 
ATOM     14  H   UNL     1      -7.664  10.672   3.683  0.00  0.00    +0.000 HD
ATOM     15  H   UNL     1      -6.843  12.220   3.998  0.00  0.00    +0.000 HD
ATOM     16  H   UNL     1      -6.632  10.881   5.119  0.00  0.00    +0.000 HD
ENDBRANCH  10  13
ENDBRANCH   9  10
ENDBRANCH   8   9
ENDBRANCH   4   8
ENDBRANCH   1   4
BRANCH   1  18
ATOM     17  O   UNL     1      -7.266   9.226  10.484  0.00  0.00    +0.000 OA
ATOM     18  C   UNL     1      -8.433   8.880  10.363  0.00  0.00    +0.000 C 
BRANCH  18  19
ATOM     19  O   UNL     1      -9.063   7.917  11.101  0.00  0.00    +0.000 OA
BRANCH  19  20
ATOM     20  C   UNL     1     -10.425   8.196  11.442  0.00  0.00    +0.000 C 
ATOM     21  H   UNL     1     -10.876   8.818  10.662  0.00  0.00    +0.000 HD
ATOM     22  H   UNL     1     -10.980   7.255  11.524  0.00  0.00    +0.000 HD
BRANCH  20  23
ATOM     23  C   UNL     1     -10.461   8.929  12.767  0.00  0.00    +0.000 C 
ATOM     24  H   UNL     1     -11.306   9.621  12.807  0.00  0.00    +0.000 HD
ATOM     25  H   UNL     1     -10.545   8.220  13.597  0.00  0.00    +0.000 HD
ATOM     26  H   UNL     1      -9.535   9.491  12.921  0.00  0.00    +0.000 HD
ENDBRANCH  20  23
ENDBRANCH  19  20
ENDBRANCH  18  19
ENDBRANCH   1  18
TORSDOF 9
ENDMDL
MODEL 9
REMARK VINA RESULT:    -3.979     16.883     18.247
REMARK INTER + INTRA:          -6.039
REMARK INTER:                  -5.840
REMARK INTRA:                  -0.199
REMARK UNBOUND:                -0.199
REMARK  Name = 31249
REMARK  9 active torsions:
REMARK  status: ('A' for Active; 'I' for Inactive)
REMARK    1  A    between atoms: O_1  and  C_7
REMARK    2  A    between atoms: O_1  and  C_9
REMARK    3  A    between atoms: O_2  and  C_8
REMARK    4  A    between atoms: O_2  and  C_10
REMARK    5  A    between atoms: C_5  and  C_6
REMARK    6  A    between atoms: C_5  and  C_7
REMARK    7  A    between atoms: C_6  and  C_8
REMARK    8  A    between atoms: C_9  and  C_11
REMARK    9  A    between atoms: C_10  and  C_12
REMARK                            x       y       z     vdW  Elec       q    Type
REMARK                         _______ _______ _______ _____ _____    ______ ____
ROOT
ATOM      1  C   UNL     1       1.691  -0.362 -12.944  0.00  0.00    +0.000 C 
ATOM      2  H   UNL     1       1.294  -1.227 -13.491  0.00  0.00    +0.000 HD
ATOM      3  H   UNL     1       2.295  -0.730 -12.107  0.00  0.00    +0.000 HD
ENDROOT
BRANCH   1   4
ATOM      4  C   UNL     1       0.538   0.482 -12.409  0.00  0.00    +0.000 C 
ATOM      5  H   UNL     1       0.821   0.923 -11.446  0.00  0.00    +0.000 HD
ATOM      6  H   UNL     1       0.319   1.295 -13.111  0.00  0.00    +0.000 HD
BRANCH   4   8
ATOM      7  O   UNL     1      -1.323  -0.940 -13.077  0.00  0.00    +0.000 OA
ATOM      8  C   UNL     1      -0.730  -0.321 -12.206  0.00  0.00    +0.000 C 
BRANCH   8   9
ATOM      9  O   UNL     1      -1.102  -0.231 -10.894  0.00  0.00    +0.000 OA
BRANCH   9  10
ATOM     10  C   UNL     1      -2.005  -1.245 -10.440  0.00  0.00    +0.000 C 
ATOM     11  H   UNL     1      -2.346  -1.839 -11.294  0.00  0.00    +0.000 HD
ATOM     12  H   UNL     1      -1.492  -1.897  -9.724  0.00  0.00    +0.000 HD
BRANCH  10  13
ATOM     13  C   UNL     1      -3.191  -0.584  -9.770  0.00  0.00    +0.000 C 
ATOM     14  H   UNL     1      -2.888   0.329  -9.251  0.00  0.00    +0.000 HD
ATOM     15  H   UNL     1      -3.960  -0.333 -10.507  0.00  0.00    +0.000 HD
ATOM     16  H   UNL     1      -3.654  -1.265  -9.047  0.00  0.00    +0.000 HD
ENDBRANCH  10  13
ENDBRANCH   9  10
ENDBRANCH   8   9
ENDBRANCH   4   8
ENDBRANCH   1   4
BRANCH   1  18
ATOM     17  O   UNL     1       2.294   1.432 -14.475  0.00  0.00    +0.000 OA
ATOM     18  C   UNL     1       2.600   0.410 -13.876  0.00  0.00    +0.000 C 
BRANCH  18  19
ATOM     19  O   UNL     1       3.808  -0.226 -13.942  0.00  0.00    +0.000 OA
BRANCH  19  20
ATOM     20  C   UNL     1       4.659   0.180 -15.019  0.00  0.00    +0.000 C 
ATOM     21  H   UNL     1       4.046   0.553 -15.848  0.00  0.00    +0.000 HD
ATOM     22  H   UNL     1       5.329   0.976 -14.675  0.00  0.00    +0.000 HD
BRANCH  20  23
ATOM     23  C   UNL     1       5.472  -1.011 -15.480  0.00  0.00    +0.000 C 
ATOM     24  H   UNL     1       6.469  -0.701 -15.805  0.00  0.00    +0.000 HD
ATOM     25  H   UNL     1       5.575  -1.743 -14.672  0.00  0.00    +0.000 HD
ATOM     26  H   UNL     1       4.973  -1.521 -16.309  0.00  0.00    +0.000 HD
ENDBRANCH  20  23
ENDBRANCH  19  20
ENDBRANCH  18  19
ENDBRANCH   1  18
TORSDOF 9
ENDMDL
MODEL 10
REMARK VINA RESULT:    -3.935     13.881     14.524
REMARK INTER + INTRA:          -5.975
REMARK INTER:                  -5.430
REMARK INTRA:                  -0.545
REMARK UNBOUND:                -0.199
REMARK  Name = 31249
REMARK  9 active torsions:
REMARK  status: ('A' for Active; 'I' for Inactive)
REMARK    1  A    between atoms: O_1  and  C_7
REMARK    2  A    between atoms: O_1  and  C_9
REMARK    3  A    between atoms: O_2  and  C_8
REMARK    4  A    between atoms: O_2  and  C_10
REMARK    5  A    between atoms: C_5  and  C_6
REMARK    6  A    between atoms: C_5  and  C_7
REMARK    7  A    between atoms: C_6  and  C_8
REMARK    8  A    between atoms: C_9  and  C_11
REMARK    9  A    between atoms: C_10  and  C_12
REMARK                            x       y       z     vdW  Elec       q    Type
REMARK                         _______ _______ _______ _____ _____    ______ ____
ROOT
ATOM      1  C   UNL     1      -0.995   9.997 -11.111  0.00  0.00    +0.000 C 
ATOM      2  H   UNL     1      -0.764  11.004 -10.741  0.00  0.00    +0.000 HD
ATOM      3  H   UNL     1      -0.122   9.357 -10.941  0.00  0.00    +0.000 HD
ENDROOT
BRANCH   1   4
ATOM      4  C   UNL     1      -1.301  10.056 -12.605  0.00  0.00    +0.000 C 
ATOM      5  H   UNL     1      -2.359   9.822 -12.774  0.00  0.00    +0.000 HD
ATOM      6  H   UNL     1      -1.106  11.067 -12.982  0.00  0.00    +0.000 HD
BRANCH   4   8
ATOM      7  O   UNL     1       0.609   9.334 -13.933  0.00  0.00    +0.000 OA
ATOM      8  C   UNL     1      -0.468   9.082 -13.412  0.00  0.00    +0.000 C 
BRANCH   8   9
ATOM      9  O   UNL     1      -1.123   7.884 -13.467  0.00  0.00    +0.000 OA
BRANCH   9  10
ATOM     10  C   UNL     1      -2.467   7.939 -13.958  0.00  0.00    +0.000 C 
ATOM     11  H   UNL     1      -3.065   8.588 -13.310  0.00  0.00    +0.000 HD
ATOM     12  H   UNL     1      -2.467   8.340 -14.977  0.00  0.00    +0.000 HD
BRANCH  10  13
ATOM     13  C   UNL     1      -3.049   6.541 -13.959  0.00  0.00    +0.000 C 
ATOM     14  H   UNL     1      -2.322   5.815 -13.584  0.00  0.00    +0.000 HD
ATOM     15  H   UNL     1      -3.946   6.497 -13.334  0.00  0.00    +0.000 HD
ATOM     16  H   UNL     1      -3.350   6.249 -14.971  0.00  0.00    +0.000 HD
ENDBRANCH  10  13
ENDBRANCH   9  10
ENDBRANCH   8   9
ENDBRANCH   4   8
ENDBRANCH   1   4
BRANCH   1  18
ATOM     17  O   UNL     1      -2.991  10.120  -9.723  0.00  0.00    +0.000 OA
ATOM     18  C   UNL     1      -2.147   9.447 -10.299  0.00  0.00    +0.000 C 
BRANCH  18  19
ATOM     19  O   UNL     1      -2.083   8.082 -10.308  0.00  0.00    +0.000 OA
BRANCH  19  20
ATOM     20  C   UNL     1      -3.344   7.406 -10.307  0.00  0.00    +0.000 C 
ATOM     21  H   UNL     1      -4.151   8.139 -10.416  0.00  0.00    +0.000 HD
ATOM     22  H   UNL     1      -3.380   6.698 -11.143  0.00  0.00    +0.000 HD
BRANCH  20  23
ATOM     23  C   UNL     1      -3.503   6.661  -8.998  0.00  0.00    +0.000 C 
ATOM     24  H   UNL     1      -2.834   7.067  -8.234  0.00  0.00    +0.000 HD
ATOM     25  H   UNL     1      -4.535   6.730  -8.638  0.00  0.00    +0.000 HD
ATOM     26  H   UNL     1      -3.283   5.598  -9.132  0.00  0.00    +0.000 HD
ENDBRANCH  20  23
ENDBRANCH  19  20
ENDBRANCH  18  19
ENDBRANCH   1  18
TORSDOF 9
ENDMDL
