MODEL 1
REMARK VINA RESULT:    -4.864      0.000      0.000
REMARK INTER + INTRA:          -8.226
REMARK INTER:                  -7.188
REMARK INTRA:                  -1.038
REMARK UNBOUND:                -0.234
REMARK  Name = 3893
REMARK  12 active torsions:
REMARK  status: ('A' for Active; 'I' for Inactive)
REMARK    1  A    between atoms: O_1  and  C_14
REMARK    2  A    between atoms: C_3  and  C_4
REMARK    3  A    between atoms: C_3  and  C_5
REMARK    4  A    between atoms: C_4  and  C_6
REMARK    5  A    between atoms: C_5  and  C_7
REMARK    6  A    between atoms: C_6  and  C_8
REMARK    7  A    between atoms: C_7  and  C_9
REMARK    8  A    between atoms: C_8  and  C_10
REMARK    9  A    between atoms: C_9  and  C_11
REMARK   10  A    between atoms: C_10  and  C_12
REMARK   11  A    between atoms: C_11  and  C_13
REMARK   12  A    between atoms: C_12  and  C_14
REMARK                            x       y       z     vdW  Elec       q    Type
REMARK                         _______ _______ _______ _____ _____    ______ ____
ROOT
ATOM      1  C   UNL     1      -2.796   9.732  -9.369  0.00  0.00    +0.000 C 
ATOM      2  H   UNL     1      -3.538   9.796 -10.174  0.00  0.00    +0.000 HD
ATOM      3  H   UNL     1      -2.884  10.649  -8.773  0.00  0.00    +0.000 HD
ENDROOT
BRANCH   1   4
ATOM      4  C   UNL     1      -1.391   9.651  -9.973  0.00  0.00    +0.000 C 
ATOM      5  H   UNL     1      -0.719  10.319  -9.419  0.00  0.00    +0.000 HD
ATOM      6  H   UNL     1      -1.002   8.634  -9.846  0.00  0.00    +0.000 HD
BRANCH   4   7
ATOM      7  C   UNL     1      -1.346  10.023 -11.459  0.00  0.00    +0.000 C 
ATOM      8  H   UNL     1      -0.691   9.316 -11.984  0.00  0.00    +0.000 HD
ATOM      9  H   UNL     1      -0.891  11.015 -11.564  0.00  0.00    +0.000 HD
BRANCH   7  10
ATOM     10  C   UNL     1      -2.723  10.027 -12.126  0.00  0.00    +0.000 C 
ATOM     11  H   UNL     1      -3.113  11.051 -12.163  0.00  0.00    +0.000 HD
ATOM     12  H   UNL     1      -3.422   9.434 -11.526  0.00  0.00    +0.000 HD
BRANCH  10  13
ATOM     13  C   UNL     1      -2.650   9.455 -13.546  0.00  0.00    +0.000 C 
ATOM     14  H   UNL     1      -3.461   9.882 -14.150  0.00  0.00    +0.000 HD
ATOM     15  H   UNL     1      -2.821   8.372 -13.516  0.00  0.00    +0.000 HD
BRANCH  13  16
ATOM     16  C   UNL     1      -1.311   9.740 -14.222  0.00  0.00    +0.000 C 
ATOM     17  H   UNL     1      -1.429  10.548 -14.953  0.00  0.00    +0.000 HD
ATOM     18  H   UNL     1      -0.577  10.048 -13.469  0.00  0.00    +0.000 HD
BRANCH  16  20
ATOM     19  O   UNL     1      -1.450   7.601 -15.335  0.00  0.00    +0.000 OA
ATOM     20  C   UNL     1      -0.763   8.537 -14.947  0.00  0.00    +0.000 C 
BRANCH  20  21
ATOM     21  O   UNL     1       0.579   8.605 -15.131  0.00  0.00    +0.000 OA
ATOM     22  H   UNL     1       0.954   7.744 -15.418  0.00  0.00    +0.000 HD
ENDBRANCH  20  21
ENDBRANCH  16  20
ENDBRANCH  13  16
ENDBRANCH  10  13
ENDBRANCH   7  10
ENDBRANCH   4   7
ENDBRANCH   1   4
BRANCH   1  23
ATOM     23  C   UNL     1      -3.092   8.515  -8.489  0.00  0.00    +0.000 C 
ATOM     24  H   UNL     1      -4.108   8.591  -8.085  0.00  0.00    +0.000 HD
ATOM     25  H   UNL     1      -2.405   8.500  -7.635  0.00  0.00    +0.000 HD
BRANCH  23  26
ATOM     26  C   UNL     1      -2.955   7.213  -9.280  0.00  0.00    +0.000 C 
ATOM     27  H   UNL     1      -2.245   7.357 -10.104  0.00  0.00    +0.000 HD
ATOM     28  H   UNL     1      -2.531   6.439  -8.629  0.00  0.00    +0.000 HD
BRANCH  26  29
ATOM     29  C   UNL     1      -4.282   6.707  -9.856  0.00  0.00    +0.000 C 
ATOM     30  H   UNL     1      -4.381   5.639  -9.624  0.00  0.00    +0.000 HD
ATOM     31  H   UNL     1      -5.103   7.214  -9.334  0.00  0.00    +0.000 HD
BRANCH  29  32
ATOM     32  C   UNL     1      -4.467   6.895 -11.364  0.00  0.00    +0.000 C 
ATOM     33  H   UNL     1      -4.255   7.938 -11.625  0.00  0.00    +0.000 HD
ATOM     34  H   UNL     1      -3.733   6.279 -11.897  0.00  0.00    +0.000 HD
BRANCH  32  35
ATOM     35  C   UNL     1      -5.861   6.539 -11.854  0.00  0.00    +0.000 C 
ATOM     36  H   UNL     1      -6.420   6.000 -11.083  0.00  0.00    +0.000 HD
ATOM     37  H   UNL     1      -6.424   7.440 -12.121  0.00  0.00    +0.000 HD
ATOM     38  H   UNL     1      -5.802   5.900 -12.741  0.00  0.00    +0.000 HD
ENDBRANCH  32  35
ENDBRANCH  29  32
ENDBRANCH  26  29
ENDBRANCH  23  26
ENDBRANCH   1  23
TORSDOF 12
ENDMDL
MODEL 2
REMARK VINA RESULT:    -4.795     19.017     20.998
REMARK INTER + INTRA:          -8.112
REMARK INTER:                  -7.104
REMARK INTRA:                  -1.008
REMARK UNBOUND:                -0.234
REMARK  Name = 3893
REMARK  12 active torsions:
REMARK  status: ('A' for Active; 'I' for Inactive)
REMARK    1  A    between atoms: O_1  and  C_14
REMARK    2  A    between atoms: C_3  and  C_4
REMARK    3  A    between atoms: C_3  and  C_5
REMARK    4  A    between atoms: C_4  and  C_6
REMARK    5  A    between atoms: C_5  and  C_7
REMARK    6  A    between atoms: C_6  and  C_8
REMARK    7  A    between atoms: C_7  and  C_9
REMARK    8  A    between atoms: C_8  and  C_10
REMARK    9  A    between atoms: C_9  and  C_11
REMARK   10  A    between atoms: C_10  and  C_12
REMARK   11  A    between atoms: C_11  and  C_13
REMARK   12  A    between atoms: C_12  and  C_14
REMARK                            x       y       z     vdW  Elec       q    Type
REMARK                         _______ _______ _______ _____ _____    ______ ____
ROOT
ATOM      1  C   UNL     1     -10.654  12.304   5.228  0.00  0.00    +0.000 C 
ATOM      2  H   UNL     1     -11.323  13.172   5.262  0.00  0.00    +0.000 HD
ATOM      3  H   UNL     1     -11.194  11.499   4.714  0.00  0.00    +0.000 HD
ENDROOT
BRANCH   1   4
ATOM      4  C   UNL     1     -10.317  11.861   6.654  0.00  0.00    +0.000 C 
ATOM      5  H   UNL     1      -9.253  11.595   6.709  0.00  0.00    +0.000 HD
ATOM      6  H   UNL     1     -10.467  12.704   7.338  0.00  0.00    +0.000 HD
BRANCH   4   7
ATOM      7  C   UNL     1     -11.152  10.671   7.136  0.00  0.00    +0.000 C 
ATOM      8  H   UNL     1     -11.879  10.406   6.358  0.00  0.00    +0.000 HD
ATOM      9  H   UNL     1     -11.728  10.974   8.018  0.00  0.00    +0.000 HD
BRANCH   7  10
ATOM     10  C   UNL     1     -10.311   9.439   7.482  0.00  0.00    +0.000 C 
ATOM     11  H   UNL     1     -10.299   8.749   6.630  0.00  0.00    +0.000 HD
ATOM     12  H   UNL     1     -10.770   8.908   8.324  0.00  0.00    +0.000 HD
BRANCH  10  13
ATOM     13  C   UNL     1      -8.875   9.835   7.841  0.00  0.00    +0.000 C 
ATOM     14  H   UNL     1      -8.894  10.746   8.454  0.00  0.00    +0.000 HD
ATOM     15  H   UNL     1      -8.323  10.086   6.927  0.00  0.00    +0.000 HD
BRANCH  13  16
ATOM     16  C   UNL     1      -8.137   8.733   8.596  0.00  0.00    +0.000 C 
ATOM     17  H   UNL     1      -8.560   7.756   8.333  0.00  0.00    +0.000 HD
ATOM     18  H   UNL     1      -7.077   8.745   8.320  0.00  0.00    +0.000 HD
BRANCH  16  20
ATOM     19  O   UNL     1      -8.073   9.952  10.679  0.00  0.00    +0.000 OA
ATOM     20  C   UNL     1      -8.236   8.890  10.092  0.00  0.00    +0.000 C 
BRANCH  20  21
ATOM     21  O   UNL     1      -8.533   7.726  10.721  0.00  0.00    +0.000 OA
ATOM     22  H   UNL     1      -9.226   7.219  10.246  0.00  0.00    +0.000 HD
ENDBRANCH  20  21
ENDBRANCH  16  20
ENDBRANCH  13  16
ENDBRANCH  10  13
ENDBRANCH   7  10
ENDBRANCH   4   7
ENDBRANCH   1   4
BRANCH   1  23
ATOM     23  C   UNL     1      -9.388  12.658   4.443  0.00  0.00    +0.000 C 
ATOM     24  H   UNL     1      -8.981  13.607   4.810  0.00  0.00    +0.000 HD
ATOM     25  H   UNL     1      -9.637  12.800   3.384  0.00  0.00    +0.000 HD
BRANCH  23  26
ATOM     26  C   UNL     1      -8.328  11.563   4.578  0.00  0.00    +0.000 C 
ATOM     27  H   UNL     1      -8.618  10.870   5.376  0.00  0.00    +0.000 HD
ATOM     28  H   UNL     1      -8.292  10.980   3.650  0.00  0.00    +0.000 HD
BRANCH  26  29
ATOM     29  C   UNL     1      -6.928  12.106   4.879  0.00  0.00    +0.000 C 
ATOM     30  H   UNL     1      -6.303  11.281   5.247  0.00  0.00    +0.000 HD
ATOM     31  H   UNL     1      -6.474  12.440   3.938  0.00  0.00    +0.000 HD
BRANCH  29  32
ATOM     32  C   UNL     1      -6.862  13.252   5.892  0.00  0.00    +0.000 C 
ATOM     33  H   UNL     1      -7.871  13.462   6.264  0.00  0.00    +0.000 HD
ATOM     34  H   UNL     1      -6.265  12.936   6.756  0.00  0.00    +0.000 HD
BRANCH  32  35
ATOM     35  C   UNL     1      -6.271  14.532   5.324  0.00  0.00    +0.000 C 
ATOM     36  H   UNL     1      -6.970  15.010   4.631  0.00  0.00    +0.000 HD
ATOM     37  H   UNL     1      -6.038  15.243   6.123  0.00  0.00    +0.000 HD
ATOM     38  H   UNL     1      -5.346  14.317   4.780  0.00  0.00    +0.000 HD
ENDBRANCH  32  35
ENDBRANCH  29  32
ENDBRANCH  26  29
ENDBRANCH  23  26
ENDBRANCH   1  23
TORSDOF 12
ENDMDL
MODEL 3
REMARK VINA RESULT:    -4.791     18.881     21.184
REMARK INTER + INTRA:          -8.106
REMARK INTER:                  -6.869
REMARK INTRA:                  -1.237
REMARK UNBOUND:                -0.234
REMARK  Name = 3893
REMARK  12 active torsions:
REMARK  status: ('A' for Active; 'I' for Inactive)
REMARK    1  A    between atoms: O_1  and  C_14
REMARK    2  A    between atoms: C_3  and  C_4
REMARK    3  A    between atoms: C_3  and  C_5
REMARK    4  A    between atoms: C_4  and  C_6
REMARK    5  A    between atoms: C_5  and  C_7
REMARK    6  A    between atoms: C_6  and  C_8
REMARK    7  A    between atoms: C_7  and  C_9
REMARK    8  A    between atoms: C_8  and  C_10
REMARK    9  A    between atoms: C_9  and  C_11
REMARK   10  A    between atoms: C_10  and  C_12
REMARK   11  A    between atoms: C_11  and  C_13
REMARK   12  A    between atoms: C_12  and  C_14
REMARK                            x       y       z     vdW  Elec       q    Type
REMARK                         _______ _______ _______ _____ _____    ______ ____
ROOT
ATOM      1  C   UNL     1      -7.712  12.785   4.818  0.00  0.00    +0.000 C 
ATOM      2  H   UNL     1      -8.445  13.057   5.587  0.00  0.00    +0.000 HD
ATOM      3  H   UNL     1      -8.086  13.171   3.862  0.00  0.00    +0.000 HD
ENDROOT
BRANCH   1   4
ATOM      4  C   UNL     1      -7.596  11.260   4.739  0.00  0.00    +0.000 C 
ATOM      5  H   UNL     1      -8.070  10.908   3.814  0.00  0.00    +0.000 HD
ATOM      6  H   UNL     1      -6.537  10.982   4.677  0.00  0.00    +0.000 HD
BRANCH   4   7
ATOM      7  C   UNL     1      -8.234  10.539   5.931  0.00  0.00    +0.000 C 
ATOM      8  H   UNL     1      -7.449  10.272   6.649  0.00  0.00    +0.000 HD
ATOM      9  H   UNL     1      -8.677   9.599   5.582  0.00  0.00    +0.000 HD
BRANCH   7  10
ATOM     10  C   UNL     1      -9.307  11.369   6.639  0.00  0.00    +0.000 C 
ATOM     11  H   UNL     1     -10.269  11.244   6.128  0.00  0.00    +0.000 HD
ATOM     12  H   UNL     1      -9.044  12.432   6.582  0.00  0.00    +0.000 HD
BRANCH  10  13
ATOM     13  C   UNL     1      -9.448  10.951   8.107  0.00  0.00    +0.000 C 
ATOM     14  H   UNL     1     -10.508  10.770   8.331  0.00  0.00    +0.000 HD
ATOM     15  H   UNL     1      -9.129  11.775   8.757  0.00  0.00    +0.000 HD
BRANCH  13  16
ATOM     16  C   UNL     1      -8.640   9.699   8.438  0.00  0.00    +0.000 C 
ATOM     17  H   UNL     1      -8.835   8.922   7.689  0.00  0.00    +0.000 HD
ATOM     18  H   UNL     1      -7.571   9.939   8.428  0.00  0.00    +0.000 HD
BRANCH  16  20
ATOM     19  O   UNL     1     -10.035   9.348  10.377  0.00  0.00    +0.000 OA
ATOM     20  C   UNL     1      -8.982   9.131   9.792  0.00  0.00    +0.000 C 
BRANCH  20  21
ATOM     21  O   UNL     1      -7.997   8.346  10.293  0.00  0.00    +0.000 OA
ATOM     22  H   UNL     1      -7.929   8.421  11.269  0.00  0.00    +0.000 HD
ENDBRANCH  20  21
ENDBRANCH  16  20
ENDBRANCH  13  16
ENDBRANCH  10  13
ENDBRANCH   7  10
ENDBRANCH   4   7
ENDBRANCH   1   4
BRANCH   1  23
ATOM     23  C   UNL     1      -6.361  13.428   5.141  0.00  0.00    +0.000 C 
ATOM     24  H   UNL     1      -5.937  13.870   4.232  0.00  0.00    +0.000 HD
ATOM     25  H   UNL     1      -5.658  12.660   5.485  0.00  0.00    +0.000 HD
BRANCH  23  26
ATOM     26  C   UNL     1      -6.505  14.509   6.213  0.00  0.00    +0.000 C 
ATOM     27  H   UNL     1      -5.545  15.022   6.347  0.00  0.00    +0.000 HD
ATOM     28  H   UNL     1      -7.221  15.265   5.868  0.00  0.00    +0.000 HD
BRANCH  26  29
ATOM     29  C   UNL     1      -6.968  13.967   7.568  0.00  0.00    +0.000 C 
ATOM     30  H   UNL     1      -7.557  14.742   8.075  0.00  0.00    +0.000 HD
ATOM     31  H   UNL     1      -7.652  13.127   7.391  0.00  0.00    +0.000 HD
BRANCH  29  32
ATOM     32  C   UNL     1      -5.857  13.506   8.516  0.00  0.00    +0.000 C 
ATOM     33  H   UNL     1      -5.012  13.134   7.925  0.00  0.00    +0.000 HD
ATOM     34  H   UNL     1      -5.490  14.367   9.087  0.00  0.00    +0.000 HD
BRANCH  32  35
ATOM     35  C   UNL     1      -6.296  12.420   9.484  0.00  0.00    +0.000 C 
ATOM     36  H   UNL     1      -6.594  11.515   8.947  0.00  0.00    +0.000 HD
ATOM     37  H   UNL     1      -5.485  12.160  10.173  0.00  0.00    +0.000 HD
ATOM     38  H   UNL     1      -7.150  12.761  10.078  0.00  0.00    +0.000 HD
ENDBRANCH  32  35
ENDBRANCH  29  32
ENDBRANCH  26  29
ENDBRANCH  23  26
ENDBRANCH   1  23
TORSDOF 12
ENDMDL
MODEL 4
REMARK VINA RESULT:    -4.788     11.353     13.615
REMARK INTER + INTRA:          -8.101
REMARK INTER:                  -7.675
REMARK INTRA:                  -0.426
REMARK UNBOUND:                -0.234
REMARK  Name = 3893
REMARK  12 active torsions:
REMARK  status: ('A' for Active; 'I' for Inactive)
REMARK    1  A    between atoms: O_1  and  C_14
REMARK    2  A    between atoms: C_3  and  C_4
REMARK    3  A    between atoms: C_3  and  C_5
REMARK    4  A    between atoms: C_4  and  C_6
REMARK    5  A    between atoms: C_5  and  C_7
REMARK    6  A    between atoms: C_6  and  C_8
REMARK    7  A    between atoms: C_7  and  C_9
REMARK    8  A    between atoms: C_8  and  C_10
REMARK    9  A    between atoms: C_9  and  C_11
REMARK   10  A    between atoms: C_10  and  C_12
REMARK   11  A    between atoms: C_11  and  C_13
REMARK   12  A    between atoms: C_12  and  C_14
REMARK                            x       y       z     vdW  Elec       q    Type
REMARK                         _______ _______ _______ _____ _____    ______ ____
ROOT
ATOM      1  C   UNL     1     -12.848   0.731  -4.853  0.00  0.00    +0.000 C 
ATOM      2  H   UNL     1     -12.227   0.093  -5.493  0.00  0.00    +0.000 HD
ATOM      3  H   UNL     1     -13.885   0.618  -5.191  0.00  0.00    +0.000 HD
ENDROOT
BRANCH   1   4
ATOM      4  C   UNL     1     -12.417   2.192  -5.014  0.00  0.00    +0.000 C 
ATOM      5  H   UNL     1     -13.306   2.817  -5.169  0.00  0.00    +0.000 HD
ATOM      6  H   UNL     1     -11.949   2.533  -4.084  0.00  0.00    +0.000 HD
BRANCH   4   7
ATOM      7  C   UNL     1     -11.445   2.415  -6.176  0.00  0.00    +0.000 C 
ATOM      8  H   UNL     1     -11.999   2.361  -7.121  0.00  0.00    +0.000 HD
ATOM      9  H   UNL     1     -10.713   1.598  -6.190  0.00  0.00    +0.000 HD
BRANCH   7  10
ATOM     10  C   UNL     1     -10.705   3.753  -6.100  0.00  0.00    +0.000 C 
ATOM     11  H   UNL     1     -11.422   4.561  -5.915  0.00  0.00    +0.000 HD
ATOM     12  H   UNL     1     -10.222   3.959  -7.062  0.00  0.00    +0.000 HD
BRANCH  10  13
ATOM     13  C   UNL     1      -9.651   3.737  -4.987  0.00  0.00    +0.000 C 
ATOM     14  H   UNL     1      -9.454   2.699  -4.690  0.00  0.00    +0.000 HD
ATOM     15  H   UNL     1     -10.046   4.245  -4.098  0.00  0.00    +0.000 HD
BRANCH  13  16
ATOM     16  C   UNL     1      -8.343   4.400  -5.412  0.00  0.00    +0.000 C 
ATOM     17  H   UNL     1      -7.503   3.939  -4.880  0.00  0.00    +0.000 HD
ATOM     18  H   UNL     1      -8.197   4.267  -6.489  0.00  0.00    +0.000 HD
BRANCH  16  20
ATOM     19  O   UNL     1      -8.930   6.716  -5.767  0.00  0.00    +0.000 OA
ATOM     20  C   UNL     1      -8.322   5.878  -5.114  0.00  0.00    +0.000 C 
BRANCH  20  21
ATOM     21  O   UNL     1      -7.557   6.182  -4.035  0.00  0.00    +0.000 OA
ATOM     22  H   UNL     1      -7.700   7.105  -3.734  0.00  0.00    +0.000 HD
ENDBRANCH  20  21
ENDBRANCH  16  20
ENDBRANCH  13  16
ENDBRANCH  10  13
ENDBRANCH   7  10
ENDBRANCH   4   7
ENDBRANCH   1   4
BRANCH   1  23
ATOM     23  C   UNL     1     -12.728   0.275  -3.397  0.00  0.00    +0.000 C 
ATOM     24  H   UNL     1     -13.438   0.834  -2.776  0.00  0.00    +0.000 HD
ATOM     25  H   UNL     1     -11.723   0.499  -3.020  0.00  0.00    +0.000 HD
BRANCH  23  26
ATOM     26  C   UNL     1     -13.004  -1.223  -3.262  0.00  0.00    +0.000 C 
ATOM     27  H   UNL     1     -12.158  -1.708  -2.761  0.00  0.00    +0.000 HD
ATOM     28  H   UNL     1     -13.879  -1.372  -2.618  0.00  0.00    +0.000 HD
BRANCH  26  29
ATOM     29  C   UNL     1     -13.250  -1.921  -4.603  0.00  0.00    +0.000 C 
ATOM     30  H   UNL     1     -14.187  -1.542  -5.030  0.00  0.00    +0.000 HD
ATOM     31  H   UNL     1     -12.453  -1.629  -5.299  0.00  0.00    +0.000 HD
BRANCH  29  32
ATOM     32  C   UNL     1     -13.323  -3.450  -4.554  0.00  0.00    +0.000 C 
ATOM     33  H   UNL     1     -14.306  -3.774  -4.917  0.00  0.00    +0.000 HD
ATOM     34  H   UNL     1     -12.578  -3.869  -5.240  0.00  0.00    +0.000 HD
BRANCH  32  35
ATOM     35  C   UNL     1     -13.098  -4.025  -3.166  0.00  0.00    +0.000 C 
ATOM     36  H   UNL     1     -13.948  -3.810  -2.511  0.00  0.00    +0.000 HD
ATOM     37  H   UNL     1     -12.964  -5.111  -3.210  0.00  0.00    +0.000 HD
ATOM     38  H   UNL     1     -12.200  -3.590  -2.714  0.00  0.00    +0.000 HD
ENDBRANCH  32  35
ENDBRANCH  29  32
ENDBRANCH  26  29
ENDBRANCH  23  26
ENDBRANCH   1  23
TORSDOF 12
ENDMDL
MODEL 5
REMARK VINA RESULT:    -4.772      9.339     10.872
REMARK INTER + INTRA:          -8.075
REMARK INTER:                  -6.890
REMARK INTRA:                  -1.184
REMARK UNBOUND:                -0.234
REMARK  Name = 3893
REMARK  12 active torsions:
REMARK  status: ('A' for Active; 'I' for Inactive)
REMARK    1  A    between atoms: O_1  and  C_14
REMARK    2  A    between atoms: C_3  and  C_4
REMARK    3  A    between atoms: C_3  and  C_5
REMARK    4  A    between atoms: C_4  and  C_6
REMARK    5  A    between atoms: C_5  and  C_7
REMARK    6  A    between atoms: C_6  and  C_8
REMARK    7  A    between atoms: C_7  and  C_9
REMARK    8  A    between atoms: C_8  and  C_10
REMARK    9  A    between atoms: C_9  and  C_11
REMARK   10  A    between atoms: C_10  and  C_12
REMARK   11  A    between atoms: C_11  and  C_13
REMARK   12  A    between atoms: C_12  and  C_14
REMARK                            x       y       z     vdW  Elec       q    Type
REMARK                         _______ _______ _______ _____ _____    ______ ____
ROOT
ATOM      1  C   UNL     1      -8.388   6.085  -4.868  0.00  0.00    +0.000 C 
ATOM      2  H   UNL     1      -9.422   6.333  -4.601  0.00  0.00    +0.000 HD
ATOM      3  H   UNL     1      -7.737   6.588  -4.142  0.00  0.00    +0.000 HD
ENDROOT
BRANCH   1   4
ATOM      4  C   UNL     1      -8.082   6.608  -6.274  0.00  0.00    +0.000 C 
ATOM      5  H   UNL     1      -7.176   7.227  -6.241  0.00  0.00    +0.000 HD
ATOM      6  H   UNL     1      -7.862   5.760  -6.933  0.00  0.00    +0.000 HD
BRANCH   4   7
ATOM      7  C   UNL     1      -9.224   7.430  -6.879  0.00  0.00    +0.000 C 
ATOM      8  H   UNL     1      -9.927   6.752  -7.378  0.00  0.00    +0.000 HD
ATOM      9  H   UNL     1      -8.816   8.091  -7.653  0.00  0.00    +0.000 HD
BRANCH   7  10
ATOM     10  C   UNL     1      -9.979   8.272  -5.847  0.00  0.00    +0.000 C 
ATOM     11  H   UNL     1      -9.660   9.319  -5.920  0.00  0.00    +0.000 HD
ATOM     12  H   UNL     1      -9.728   7.925  -4.838  0.00  0.00    +0.000 HD
BRANCH  10  13
ATOM     13  C   UNL     1     -11.494   8.180  -6.062  0.00  0.00    +0.000 C 
ATOM     14  H   UNL     1     -11.693   7.854  -7.091  0.00  0.00    +0.000 HD
ATOM     15  H   UNL     1     -11.941   9.177  -5.960  0.00  0.00    +0.000 HD
BRANCH  13  16
ATOM     16  C   UNL     1     -12.165   7.219  -5.086  0.00  0.00    +0.000 C 
ATOM     17  H   UNL     1     -11.501   7.033  -4.233  0.00  0.00    +0.000 HD
ATOM     18  H   UNL     1     -13.098   7.660  -4.718  0.00  0.00    +0.000 HD
BRANCH  16  20
ATOM     19  O   UNL     1     -12.265   5.615  -6.888  0.00  0.00    +0.000 OA
ATOM     20  C   UNL     1     -12.490   5.889  -5.716  0.00  0.00    +0.000 C 
BRANCH  20  21
ATOM     21  O   UNL     1     -13.056   5.020  -4.842  0.00  0.00    +0.000 OA
ATOM     22  H   UNL     1     -13.013   5.350  -3.918  0.00  0.00    +0.000 HD
ENDBRANCH  20  21
ENDBRANCH  16  20
ENDBRANCH  13  16
ENDBRANCH  10  13
ENDBRANCH   7  10
ENDBRANCH   4   7
ENDBRANCH   1   4
BRANCH   1  23
ATOM     23  C   UNL     1      -8.181   4.570  -4.782  0.00  0.00    +0.000 C 
ATOM     24  H   UNL     1      -7.760   4.311  -3.803  0.00  0.00    +0.000 HD
ATOM     25  H   UNL     1      -7.455   4.252  -5.540  0.00  0.00    +0.000 HD
BRANCH  23  26
ATOM     26  C   UNL     1      -9.498   3.819  -4.985  0.00  0.00    +0.000 C 
ATOM     27  H   UNL     1      -9.576   3.012  -4.247  0.00  0.00    +0.000 HD
ATOM     28  H   UNL     1     -10.334   4.502  -4.796  0.00  0.00    +0.000 HD
BRANCH  26  29
ATOM     29  C   UNL     1      -9.650   3.224  -6.388  0.00  0.00    +0.000 C 
ATOM     30  H   UNL     1     -10.128   2.240  -6.302  0.00  0.00    +0.000 HD
ATOM     31  H   UNL     1     -10.341   3.854  -6.961  0.00  0.00    +0.000 HD
BRANCH  29  32
ATOM     32  C   UNL     1      -8.353   3.063  -7.186  0.00  0.00    +0.000 C 
ATOM     33  H   UNL     1      -8.051   4.041  -7.582  0.00  0.00    +0.000 HD
ATOM     34  H   UNL     1      -7.553   2.733  -6.513  0.00  0.00    +0.000 HD
BRANCH  32  35
ATOM     35  C   UNL     1      -8.467   2.080  -8.340  0.00  0.00    +0.000 C 
ATOM     36  H   UNL     1      -9.395   1.504  -8.271  0.00  0.00    +0.000 HD
ATOM     37  H   UNL     1      -8.457   2.603  -9.302  0.00  0.00    +0.000 HD
ATOM     38  H   UNL     1      -7.627   1.378  -8.326  0.00  0.00    +0.000 HD
ENDBRANCH  32  35
ENDBRANCH  29  32
ENDBRANCH  26  29
ENDBRANCH  23  26
ENDBRANCH   1  23
TORSDOF 12
ENDMDL
MODEL 6
REMARK VINA RESULT:    -4.685      1.130      3.044
REMARK INTER + INTRA:          -7.932
REMARK INTER:                  -6.666
REMARK INTRA:                  -1.265
REMARK UNBOUND:                -0.234
REMARK  Name = 3893
REMARK  12 active torsions:
REMARK  status: ('A' for Active; 'I' for Inactive)
REMARK    1  A    between atoms: O_1  and  C_14
REMARK    2  A    between atoms: C_3  and  C_4
REMARK    3  A    between atoms: C_3  and  C_5
REMARK    4  A    between atoms: C_4  and  C_6
REMARK    5  A    between atoms: C_5  and  C_7
REMARK    6  A    between atoms: C_6  and  C_8
REMARK    7  A    between atoms: C_7  and  C_9
REMARK    8  A    between atoms: C_8  and  C_10
REMARK    9  A    between atoms: C_9  and  C_11
REMARK   10  A    between atoms: C_10  and  C_12
REMARK   11  A    between atoms: C_11  and  C_13
REMARK   12  A    between atoms: C_12  and  C_14
REMARK                            x       y       z     vdW  Elec       q    Type
REMARK                         _______ _______ _______ _____ _____    ______ ____
ROOT
ATOM      1  C   UNL     1      -4.110   6.849 -12.810  0.00  0.00    +0.000 C 
ATOM      2  H   UNL     1      -3.175   6.380 -12.480  0.00  0.00    +0.000 HD
ATOM      3  H   UNL     1      -4.650   6.107 -13.411  0.00  0.00    +0.000 HD
ENDROOT
BRANCH   1   4
ATOM      4  C   UNL     1      -3.792   8.070 -13.676  0.00  0.00    +0.000 C 
ATOM      5  H   UNL     1      -2.897   7.864 -14.278  0.00  0.00    +0.000 HD
ATOM      6  H   UNL     1      -4.615   8.236 -14.381  0.00  0.00    +0.000 HD
BRANCH   4   7
ATOM      7  C   UNL     1      -3.562   9.349 -12.865  0.00  0.00    +0.000 C 
ATOM      8  H   UNL     1      -3.705   9.127 -11.800  0.00  0.00    +0.000 HD
ATOM      9  H   UNL     1      -4.324  10.087 -13.140  0.00  0.00    +0.000 HD
BRANCH   7  10
ATOM     10  C   UNL     1      -2.173   9.958 -13.073  0.00  0.00    +0.000 C 
ATOM     11  H   UNL     1      -2.007  10.756 -12.339  0.00  0.00    +0.000 HD
ATOM     12  H   UNL     1      -2.119  10.414 -14.068  0.00  0.00    +0.000 HD
BRANCH  10  13
ATOM     13  C   UNL     1      -1.078   8.895 -12.931  0.00  0.00    +0.000 C 
ATOM     14  H   UNL     1      -1.442   7.944 -13.341  0.00  0.00    +0.000 HD
ATOM     15  H   UNL     1      -0.872   8.718 -11.868  0.00  0.00    +0.000 HD
BRANCH  13  16
ATOM     16  C   UNL     1       0.215   9.291 -13.641  0.00  0.00    +0.000 C 
ATOM     17  H   UNL     1       0.350  10.377 -13.586  0.00  0.00    +0.000 HD
ATOM     18  H   UNL     1       1.066   8.803 -13.153  0.00  0.00    +0.000 HD
BRANCH  16  20
ATOM     19  O   UNL     1       0.953   9.400 -15.938  0.00  0.00    +0.000 OA
ATOM     20  C   UNL     1       0.218   8.898 -15.096  0.00  0.00    +0.000 C 
BRANCH  20  21
ATOM     21  O   UNL     1      -0.680   7.921 -15.376  0.00  0.00    +0.000 OA
ATOM     22  H   UNL     1      -1.550   8.289 -15.643  0.00  0.00    +0.000 HD
ENDBRANCH  20  21
ENDBRANCH  16  20
ENDBRANCH  13  16
ENDBRANCH  10  13
ENDBRANCH   7  10
ENDBRANCH   4   7
ENDBRANCH   1   4
BRANCH   1  23
ATOM     23  C   UNL     1      -4.951   7.237 -11.591  0.00  0.00    +0.000 C 
ATOM     24  H   UNL     1      -5.988   6.910 -11.740  0.00  0.00    +0.000 HD
ATOM     25  H   UNL     1      -4.968   8.328 -11.486  0.00  0.00    +0.000 HD
BRANCH  23  26
ATOM     26  C   UNL     1      -4.398   6.606 -10.313  0.00  0.00    +0.000 C 
ATOM     27  H   UNL     1      -5.088   6.796  -9.482  0.00  0.00    +0.000 HD
ATOM     28  H   UNL     1      -4.349   5.517 -10.440  0.00  0.00    +0.000 HD
BRANCH  26  29
ATOM     29  C   UNL     1      -3.009   7.124  -9.929  0.00  0.00    +0.000 C 
ATOM     30  H   UNL     1      -2.430   6.296  -9.500  0.00  0.00    +0.000 HD
ATOM     31  H   UNL     1      -2.484   7.423 -10.845  0.00  0.00    +0.000 HD
BRANCH  29  32
ATOM     32  C   UNL     1      -2.984   8.294  -8.943  0.00  0.00    +0.000 C 
ATOM     33  H   UNL     1      -4.007   8.661  -8.794  0.00  0.00    +0.000 HD
ATOM     34  H   UNL     1      -2.630   7.938  -7.968  0.00  0.00    +0.000 HD
BRANCH  32  35
ATOM     35  C   UNL     1      -2.109   9.452  -9.394  0.00  0.00    +0.000 C 
ATOM     36  H   UNL     1      -2.440   9.838 -10.363  0.00  0.00    +0.000 HD
ATOM     37  H   UNL     1      -2.139  10.271  -8.669  0.00  0.00    +0.000 HD
ATOM     38  H   UNL     1      -1.068   9.126  -9.495  0.00  0.00    +0.000 HD
ENDBRANCH  32  35
ENDBRANCH  29  32
ENDBRANCH  26  29
ENDBRANCH  23  26
ENDBRANCH   1  23
TORSDOF 12
ENDMDL
MODEL 7
REMARK VINA RESULT:    -4.650      3.324      4.484
REMARK INTER + INTRA:          -7.873
REMARK INTER:                  -7.640
REMARK INTRA:                  -0.234
REMARK UNBOUND:                -0.234
REMARK  Name = 3893
REMARK  12 active torsions:
REMARK  status: ('A' for Active; 'I' for Inactive)
REMARK    1  A    between atoms: O_1  and  C_14
REMARK    2  A    between atoms: C_3  and  C_4
REMARK    3  A    between atoms: C_3  and  C_5
REMARK    4  A    between atoms: C_4  and  C_6
REMARK    5  A    between atoms: C_5  and  C_7
REMARK    6  A    between atoms: C_6  and  C_8
REMARK    7  A    between atoms: C_7  and  C_9
REMARK    8  A    between atoms: C_8  and  C_10
REMARK    9  A    between atoms: C_9  and  C_11
REMARK   10  A    between atoms: C_10  and  C_12
REMARK   11  A    between atoms: C_11  and  C_13
REMARK   12  A    between atoms: C_12  and  C_14
REMARK                            x       y       z     vdW  Elec       q    Type
REMARK                         _______ _______ _______ _____ _____    ______ ____
ROOT
ATOM      1  C   UNL     1      -5.417   6.340 -10.283  0.00  0.00    +0.000 C 
ATOM      2  H   UNL     1      -5.001   5.576 -10.951  0.00  0.00    +0.000 HD
ATOM      3  H   UNL     1      -5.559   7.250 -10.879  0.00  0.00    +0.000 HD
ENDROOT
BRANCH   1   4
ATOM      4  C   UNL     1      -4.425   6.625  -9.151  0.00  0.00    +0.000 C 
ATOM      5  H   UNL     1      -4.675   7.586  -8.684  0.00  0.00    +0.000 HD
ATOM      6  H   UNL     1      -4.535   5.858  -8.375  0.00  0.00    +0.000 HD
BRANCH   4   7
ATOM      7  C   UNL     1      -2.966   6.661  -9.615  0.00  0.00    +0.000 C 
ATOM      8  H   UNL     1      -2.636   5.639  -9.838  0.00  0.00    +0.000 HD
ATOM      9  H   UNL     1      -2.339   7.025  -8.792  0.00  0.00    +0.000 HD
BRANCH   7  10
ATOM     10  C   UNL     1      -2.742   7.544 -10.845  0.00  0.00    +0.000 C 
ATOM     11  H   UNL     1      -2.433   8.548 -10.529  0.00  0.00    +0.000 HD
ATOM     12  H   UNL     1      -3.685   7.653 -11.394  0.00  0.00    +0.000 HD
BRANCH  10  13
ATOM     13  C   UNL     1      -1.675   6.945 -11.768  0.00  0.00    +0.000 C 
ATOM     14  H   UNL     1      -2.161   6.525 -12.658  0.00  0.00    +0.000 HD
ATOM     15  H   UNL     1      -1.178   6.109 -11.260  0.00  0.00    +0.000 HD
BRANCH  13  16
ATOM     16  C   UNL     1      -0.631   7.973 -12.197  0.00  0.00    +0.000 C 
ATOM     17  H   UNL     1       0.311   7.789 -11.668  0.00  0.00    +0.000 HD
ATOM     18  H   UNL     1      -0.454   7.889 -13.275  0.00  0.00    +0.000 HD
BRANCH  16  20
ATOM     19  O   UNL     1      -0.750   9.995 -10.882  0.00  0.00    +0.000 OA
ATOM     20  C   UNL     1      -1.058   9.388 -11.900  0.00  0.00    +0.000 C 
BRANCH  20  21
ATOM     21  O   UNL     1      -1.818   9.923 -12.888  0.00  0.00    +0.000 OA
ATOM     22  H   UNL     1      -2.359  10.676 -12.566  0.00  0.00    +0.000 HD
ENDBRANCH  20  21
ENDBRANCH  16  20
ENDBRANCH  13  16
ENDBRANCH  10  13
ENDBRANCH   7  10
ENDBRANCH   4   7
ENDBRANCH   1   4
BRANCH   1  23
ATOM     23  C   UNL     1      -6.765   5.868  -9.733  0.00  0.00    +0.000 C 
ATOM     24  H   UNL     1      -7.088   4.969 -10.273  0.00  0.00    +0.000 HD
ATOM     25  H   UNL     1      -7.526   6.639  -9.905  0.00  0.00    +0.000 HD
BRANCH  23  26
ATOM     26  C   UNL     1      -6.676   5.558  -8.238  0.00  0.00    +0.000 C 
ATOM     27  H   UNL     1      -6.321   4.530  -8.097  0.00  0.00    +0.000 HD
ATOM     28  H   UNL     1      -5.930   6.216  -7.778  0.00  0.00    +0.000 HD
BRANCH  26  29
ATOM     29  C   UNL     1      -8.009   5.724  -7.501  0.00  0.00    +0.000 C 
ATOM     30  H   UNL     1      -8.771   6.050  -8.221  0.00  0.00    +0.000 HD
ATOM     31  H   UNL     1      -8.330   4.741  -7.136  0.00  0.00    +0.000 HD
BRANCH  29  32
ATOM     32  C   UNL     1      -8.001   6.707  -6.327  0.00  0.00    +0.000 C 
ATOM     33  H   UNL     1      -7.017   7.189  -6.268  0.00  0.00    +0.000 HD
ATOM     34  H   UNL     1      -8.732   7.502  -6.516  0.00  0.00    +0.000 HD
BRANCH  32  35
ATOM     35  C   UNL     1      -8.311   6.057  -4.988  0.00  0.00    +0.000 C 
ATOM     36  H   UNL     1      -7.391   5.760  -4.476  0.00  0.00    +0.000 HD
ATOM     37  H   UNL     1      -8.860   6.746  -4.338  0.00  0.00    +0.000 HD
ATOM     38  H   UNL     1      -8.925   5.162  -5.132  0.00  0.00    +0.000 HD
ENDBRANCH  32  35
ENDBRANCH  29  32
ENDBRANCH  26  29
ENDBRANCH  23  26
ENDBRANCH   1  23
TORSDOF 12
ENDMDL
MODEL 8
REMARK VINA RESULT:    -4.635     18.732     21.172
REMARK INTER + INTRA:          -7.849
REMARK INTER:                  -6.745
REMARK INTRA:                  -1.104
REMARK UNBOUND:                -0.234
REMARK  Name = 3893
REMARK  12 active torsions:
REMARK  status: ('A' for Active; 'I' for Inactive)
REMARK    1  A    between atoms: O_1  and  C_14
REMARK    2  A    between atoms: C_3  and  C_4
REMARK    3  A    between atoms: C_3  and  C_5
REMARK    4  A    between atoms: C_4  and  C_6
REMARK    5  A    between atoms: C_5  and  C_7
REMARK    6  A    between atoms: C_6  and  C_8
REMARK    7  A    between atoms: C_7  and  C_9
REMARK    8  A    between atoms: C_8  and  C_10
REMARK    9  A    between atoms: C_9  and  C_11
REMARK   10  A    between atoms: C_10  and  C_12
REMARK   11  A    between atoms: C_11  and  C_13
REMARK   12  A    between atoms: C_12  and  C_14
REMARK                            x       y       z     vdW  Elec       q    Type
REMARK                         _______ _______ _______ _____ _____    ______ ____
ROOT
ATOM      1  C   UNL     1      -7.003  14.568   6.855  0.00  0.00    +0.000 C 
ATOM      2  H   UNL     1      -6.477  15.524   6.967  0.00  0.00    +0.000 HD
ATOM      3  H   UNL     1      -7.997  14.691   7.303  0.00  0.00    +0.000 HD
ENDROOT
BRANCH   1   4
ATOM      4  C   UNL     1      -6.240  13.473   7.604  0.00  0.00    +0.000 C 
ATOM      5  H   UNL     1      -6.786  12.524   7.514  0.00  0.00    +0.000 HD
ATOM      6  H   UNL     1      -5.265  13.322   7.126  0.00  0.00    +0.000 HD
BRANCH   4   7
ATOM      7  C   UNL     1      -6.027  13.785   9.088  0.00  0.00    +0.000 C 
ATOM      8  H   UNL     1      -6.656  14.639   9.368  0.00  0.00    +0.000 HD
ATOM      9  H   UNL     1      -4.986  14.093   9.242  0.00  0.00    +0.000 HD
BRANCH   7  10
ATOM     10  C   UNL     1      -6.342  12.603  10.009  0.00  0.00    +0.000 C 
ATOM     11  H   UNL     1      -6.919  12.951  10.873  0.00  0.00    +0.000 HD
ATOM     12  H   UNL     1      -5.407  12.178  10.391  0.00  0.00    +0.000 HD
BRANCH  10  13
ATOM     13  C   UNL     1      -7.133  11.521   9.265  0.00  0.00    +0.000 C 
ATOM     14  H   UNL     1      -6.760  11.443   8.236  0.00  0.00    +0.000 HD
ATOM     15  H   UNL     1      -8.186  11.820   9.193  0.00  0.00    +0.000 HD
BRANCH  13  16
ATOM     16  C   UNL     1      -7.038  10.157   9.944  0.00  0.00    +0.000 C 
ATOM     17  H   UNL     1      -6.242   9.565   9.477  0.00  0.00    +0.000 HD
ATOM     18  H   UNL     1      -6.802  10.291  11.006  0.00  0.00    +0.000 HD
BRANCH  16  20
ATOM     19  O   UNL     1      -9.324   9.771   9.268  0.00  0.00    +0.000 OA
ATOM     20  C   UNL     1      -8.319   9.370   9.842  0.00  0.00    +0.000 C 
BRANCH  20  21
ATOM     21  O   UNL     1      -8.240   8.161  10.452  0.00  0.00    +0.000 OA
ATOM     22  H   UNL     1      -9.008   7.590  10.234  0.00  0.00    +0.000 HD
ENDBRANCH  20  21
ENDBRANCH  16  20
ENDBRANCH  13  16
ENDBRANCH  10  13
ENDBRANCH   7  10
ENDBRANCH   4   7
ENDBRANCH   1   4
BRANCH   1  23
ATOM     23  C   UNL     1      -7.146  14.229   5.369  0.00  0.00    +0.000 C 
ATOM     24  H   UNL     1      -6.648  14.998   4.766  0.00  0.00    +0.000 HD
ATOM     25  H   UNL     1      -8.206  14.233   5.089  0.00  0.00    +0.000 HD
BRANCH  23  26
ATOM     26  C   UNL     1      -6.536  12.862   5.052  0.00  0.00    +0.000 C 
ATOM     27  H   UNL     1      -5.767  12.974   4.279  0.00  0.00    +0.000 HD
ATOM     28  H   UNL     1      -6.032  12.477   5.947  0.00  0.00    +0.000 HD
BRANCH  26  29
ATOM     29  C   UNL     1      -7.565  11.831   4.579  0.00  0.00    +0.000 C 
ATOM     30  H   UNL     1      -8.375  12.356   4.055  0.00  0.00    +0.000 HD
ATOM     31  H   UNL     1      -7.089  11.180   3.835  0.00  0.00    +0.000 HD
BRANCH  29  32
ATOM     32  C   UNL     1      -8.184  10.957   5.673  0.00  0.00    +0.000 C 
ATOM     33  H   UNL     1      -8.258   9.925   5.311  0.00  0.00    +0.000 HD
ATOM     34  H   UNL     1      -7.516  10.940   6.543  0.00  0.00    +0.000 HD
BRANCH  32  35
ATOM     35  C   UNL     1      -9.562  11.422   6.116  0.00  0.00    +0.000 C 
ATOM     36  H   UNL     1      -9.488  12.114   6.960  0.00  0.00    +0.000 HD
ATOM     37  H   UNL     1     -10.084  11.931   5.299  0.00  0.00    +0.000 HD
ATOM     38  H   UNL     1     -10.170  10.567   6.429  0.00  0.00    +0.000 HD
ENDBRANCH  32  35
ENDBRANCH  29  32
ENDBRANCH  26  29
ENDBRANCH  23  26
ENDBRANCH   1  23
TORSDOF 12
ENDMDL
MODEL 9
REMARK VINA RESULT:    -4.634     19.286     21.921
REMARK INTER + INTRA:          -7.847
REMARK INTER:                  -6.846
REMARK INTRA:                  -1.001
REMARK UNBOUND:                -0.234
REMARK  Name = 3893
REMARK  12 active torsions:
REMARK  status: ('A' for Active; 'I' for Inactive)
REMARK    1  A    between atoms: O_1  and  C_14
REMARK    2  A    between atoms: C_3  and  C_4
REMARK    3  A    between atoms: C_3  and  C_5
REMARK    4  A    between atoms: C_4  and  C_6
REMARK    5  A    between atoms: C_5  and  C_7
REMARK    6  A    between atoms: C_6  and  C_8
REMARK    7  A    between atoms: C_7  and  C_9
REMARK    8  A    between atoms: C_8  and  C_10
REMARK    9  A    between atoms: C_9  and  C_11
REMARK   10  A    between atoms: C_10  and  C_12
REMARK   11  A    between atoms: C_11  and  C_13
REMARK   12  A    between atoms: C_12  and  C_14
REMARK                            x       y       z     vdW  Elec       q    Type
REMARK                         _______ _______ _______ _____ _____    ______ ____
ROOT
ATOM      1  C   UNL     1      -8.782  11.250   5.472  0.00  0.00    +0.000 C 
ATOM      2  H   UNL     1      -9.259  12.161   5.853  0.00  0.00    +0.000 HD
ATOM      3  H   UNL     1      -9.488  10.782   4.775  0.00  0.00    +0.000 HD
ENDROOT
BRANCH   1   4
ATOM      4  C   UNL     1      -8.504  10.294   6.635  0.00  0.00    +0.000 C 
ATOM      5  H   UNL     1      -9.306   9.545   6.688  0.00  0.00    +0.000 HD
ATOM      6  H   UNL     1      -7.574   9.747   6.437  0.00  0.00    +0.000 HD
BRANCH   4   7
ATOM      7  C   UNL     1      -8.393  10.998   7.990  0.00  0.00    +0.000 C 
ATOM      8  H   UNL     1      -7.828  11.930   7.863  0.00  0.00    +0.000 HD
ATOM      9  H   UNL     1      -7.812  10.367   8.673  0.00  0.00    +0.000 HD
BRANCH   7  10
ATOM     10  C   UNL     1      -9.750  11.312   8.625  0.00  0.00    +0.000 C 
ATOM     11  H   UNL     1     -10.442  11.675   7.856  0.00  0.00    +0.000 HD
ATOM     12  H   UNL     1      -9.632  12.114   9.362  0.00  0.00    +0.000 HD
BRANCH  10  13
ATOM     13  C   UNL     1     -10.342  10.071   9.302  0.00  0.00    +0.000 C 
ATOM     14  H   UNL     1     -10.755   9.403   8.535  0.00  0.00    +0.000 HD
ATOM     15  H   UNL     1     -11.181  10.367   9.943  0.00  0.00    +0.000 HD
BRANCH  13  16
ATOM     16  C   UNL     1      -9.310   9.311  10.133  0.00  0.00    +0.000 C 
ATOM     17  H   UNL     1      -9.650   8.282  10.296  0.00  0.00    +0.000 HD
ATOM     18  H   UNL     1      -8.354   9.288   9.600  0.00  0.00    +0.000 HD
BRANCH  16  20
ATOM     19  O   UNL     1      -9.858   9.840  12.425  0.00  0.00    +0.000 OA
ATOM     20  C   UNL     1      -9.081   9.940  11.484  0.00  0.00    +0.000 C 
BRANCH  20  21
ATOM     21  O   UNL     1      -7.914  10.628  11.549  0.00  0.00    +0.000 OA
ATOM     22  H   UNL     1      -8.022  11.560  11.262  0.00  0.00    +0.000 HD
ENDBRANCH  20  21
ENDBRANCH  16  20
ENDBRANCH  13  16
ENDBRANCH  10  13
ENDBRANCH   7  10
ENDBRANCH   4   7
ENDBRANCH   1   4
BRANCH   1  23
ATOM     23  C   UNL     1      -7.492  11.614   4.732  0.00  0.00    +0.000 C 
ATOM     24  H   UNL     1      -7.531  11.222   3.709  0.00  0.00    +0.000 HD
ATOM     25  H   UNL     1      -6.635  11.141   5.227  0.00  0.00    +0.000 HD
BRANCH  23  26
ATOM     26  C   UNL     1      -7.287  13.129   4.689  0.00  0.00    +0.000 C 
ATOM     27  H   UNL     1      -7.048  13.437   3.664  0.00  0.00    +0.000 HD
ATOM     28  H   UNL     1      -8.226  13.627   4.958  0.00  0.00    +0.000 HD
BRANCH  26  29
ATOM     29  C   UNL     1      -6.177  13.621   5.623  0.00  0.00    +0.000 C 
ATOM     30  H   UNL     1      -5.484  12.792   5.813  0.00  0.00    +0.000 HD
ATOM     31  H   UNL     1      -5.599  14.393   5.100  0.00  0.00    +0.000 HD
BRANCH  29  32
ATOM     32  C   UNL     1      -6.642  14.182   6.970  0.00  0.00    +0.000 C 
ATOM     33  H   UNL     1      -6.553  15.275   6.954  0.00  0.00    +0.000 HD
ATOM     34  H   UNL     1      -7.706  13.953   7.109  0.00  0.00    +0.000 HD
BRANCH  32  35
ATOM     35  C   UNL     1      -5.860  13.642   8.156  0.00  0.00    +0.000 C 
ATOM     36  H   UNL     1      -6.368  13.874   9.097  0.00  0.00    +0.000 HD
ATOM     37  H   UNL     1      -5.745  12.555   8.086  0.00  0.00    +0.000 HD
ATOM     38  H   UNL     1      -4.861  14.088   8.189  0.00  0.00    +0.000 HD
ENDBRANCH  32  35
ENDBRANCH  29  32
ENDBRANCH  26  29
ENDBRANCH  23  26
ENDBRANCH   1  23
TORSDOF 12
ENDMDL
MODEL 10
REMARK VINA RESULT:    -4.614      3.981      5.511
REMARK INTER + INTRA:          -7.815
REMARK INTER:                  -7.398
REMARK INTRA:                  -0.417
REMARK UNBOUND:                -0.234
REMARK  Name = 3893
REMARK  12 active torsions:
REMARK  status: ('A' for Active; 'I' for Inactive)
REMARK    1  A    between atoms: O_1  and  C_14
REMARK    2  A    between atoms: C_3  and  C_4
REMARK    3  A    between atoms: C_3  and  C_5
REMARK    4  A    between atoms: C_4  and  C_6
REMARK    5  A    between atoms: C_5  and  C_7
REMARK    6  A    between atoms: C_6  and  C_8
REMARK    7  A    between atoms: C_7  and  C_9
REMARK    8  A    between atoms: C_8  and  C_10
REMARK    9  A    between atoms: C_9  and  C_11
REMARK   10  A    between atoms: C_10  and  C_12
REMARK   11  A    between atoms: C_11  and  C_13
REMARK   12  A    between atoms: C_12  and  C_14
REMARK                            x       y       z     vdW  Elec       q    Type
REMARK                         _______ _______ _______ _____ _____    ______ ____
ROOT
ATOM      1  C   UNL     1      -7.589   5.920  -9.214  0.00  0.00    +0.000 C 
ATOM      2  H   UNL     1      -8.497   6.409  -9.587  0.00  0.00    +0.000 HD
ATOM      3  H   UNL     1      -7.253   6.488  -8.337  0.00  0.00    +0.000 HD
ENDROOT
BRANCH   1   4
ATOM      4  C   UNL     1      -6.504   5.962 -10.293  0.00  0.00    +0.000 C 
ATOM      5  H   UNL     1      -6.450   4.985 -10.790  0.00  0.00    +0.000 HD
ATOM      6  H   UNL     1      -6.788   6.691 -11.060  0.00  0.00    +0.000 HD
BRANCH   4   7
ATOM      7  C   UNL     1      -5.118   6.320  -9.749  0.00  0.00    +0.000 C 
ATOM      8  H   UNL     1      -4.641   5.413  -9.358  0.00  0.00    +0.000 HD
ATOM      9  H   UNL     1      -5.234   7.008  -8.903  0.00  0.00    +0.000 HD
BRANCH   7  10
ATOM     10  C   UNL     1      -4.202   6.961 -10.796  0.00  0.00    +0.000 C 
ATOM     11  H   UNL     1      -4.496   8.006 -10.954  0.00  0.00    +0.000 HD
ATOM     12  H   UNL     1      -4.321   6.441 -11.753  0.00  0.00    +0.000 HD
BRANCH  10  13
ATOM     13  C   UNL     1      -2.735   6.902 -10.355  0.00  0.00    +0.000 C 
ATOM     14  H   UNL     1      -2.576   6.001  -9.749  0.00  0.00    +0.000 HD
ATOM     15  H   UNL     1      -2.512   7.758  -9.706  0.00  0.00    +0.000 HD
BRANCH  13  16
ATOM     16  C   UNL     1      -1.771   6.895 -11.538  0.00  0.00    +0.000 C 
ATOM     17  H   UNL     1      -1.016   6.112 -11.397  0.00  0.00    +0.000 HD
ATOM     18  H   UNL     1      -2.323   6.692 -12.462  0.00  0.00    +0.000 HD
BRANCH  16  20
ATOM     19  O   UNL     1      -0.112   8.382 -12.472  0.00  0.00    +0.000 OA
ATOM     20  C   UNL     1      -1.048   8.208 -11.701  0.00  0.00    +0.000 C 
BRANCH  20  21
ATOM     21  O   UNL     1      -1.549   9.183 -10.903  0.00  0.00    +0.000 OA
ATOM     22  H   UNL     1      -1.506   8.937  -9.954  0.00  0.00    +0.000 HD
ENDBRANCH  20  21
ENDBRANCH  16  20
ENDBRANCH  13  16
ENDBRANCH  10  13
ENDBRANCH   7  10
ENDBRANCH   4   7
ENDBRANCH   1   4
BRANCH   1  23
ATOM     23  C   UNL     1      -7.909   4.480  -8.804  0.00  0.00    +0.000 C 
ATOM     24  H   UNL     1      -7.268   3.788  -9.361  0.00  0.00    +0.000 HD
ATOM     25  H   UNL     1      -8.947   4.243  -9.067  0.00  0.00    +0.000 HD
BRANCH  23  26
ATOM     26  C   UNL     1      -7.699   4.272  -7.303  0.00  0.00    +0.000 C 
ATOM     27  H   UNL     1      -8.308   3.426  -6.962  0.00  0.00    +0.000 HD
ATOM     28  H   UNL     1      -6.652   4.003  -7.120  0.00  0.00    +0.000 HD
BRANCH  26  29
ATOM     29  C   UNL     1      -8.050   5.503  -6.462  0.00  0.00    +0.000 C 
ATOM     30  H   UNL     1      -7.193   6.188  -6.467  0.00  0.00    +0.000 HD
ATOM     31  H   UNL     1      -8.874   6.037  -6.952  0.00  0.00    +0.000 HD
BRANCH  29  32
ATOM     32  C   UNL     1      -8.440   5.226  -5.007  0.00  0.00    +0.000 C 
ATOM     33  H   UNL     1      -7.680   5.655  -4.343  0.00  0.00    +0.000 HD
ATOM     34  H   UNL     1      -9.383   5.738  -4.782  0.00  0.00    +0.000 HD
BRANCH  32  35
ATOM     35  C   UNL     1      -8.591   3.747  -4.690  0.00  0.00    +0.000 C 
ATOM     36  H   UNL     1      -7.630   3.309  -4.405  0.00  0.00    +0.000 HD
ATOM     37  H   UNL     1      -9.296   3.595  -3.866  0.00  0.00    +0.000 HD
ATOM     38  H   UNL     1      -8.967   3.206  -5.564  0.00  0.00    +0.000 HD
ENDBRANCH  32  35
ENDBRANCH  29  32
ENDBRANCH  26  29
ENDBRANCH  23  26
ENDBRANCH   1  23
TORSDOF 12
ENDMDL
