MODEL 1
REMARK VINA RESULT:    -4.927      0.000      0.000
REMARK INTER + INTRA:          -9.051
REMARK INTER:                  -8.151
REMARK INTRA:                  -0.900
REMARK UNBOUND:                -1.100
REMARK  Name = 8194
REMARK  11 active torsions:
REMARK  status: ('A' for Active; 'I' for Inactive)
REMARK    1  A    between atoms: C_2  and  C_3
REMARK    2  A    between atoms: C_2  and  C_4
REMARK    3  A    between atoms: C_3  and  C_5
REMARK    4  A    between atoms: C_4  and  C_6
REMARK    5  A    between atoms: C_5  and  C_7
REMARK    6  A    between atoms: C_6  and  C_8
REMARK    7  A    between atoms: C_7  and  C_9
REMARK    8  A    between atoms: C_8  and  C_10
REMARK    9  A    between atoms: C_9  and  C_11
REMARK   10  A    between atoms: C_10  and  C_12
REMARK   11  A    between atoms: C_11  and  C_13
REMARK                            x       y       z     vdW  Elec       q    Type
REMARK                         _______ _______ _______ _____ _____    ______ ____
ROOT
ATOM      1  C   UNL     1       7.309   8.611   0.117  0.00  0.00    +0.000 C 
ATOM      2  H   UNL     1       7.844   7.658   0.026  0.00  0.00    +0.000 HD
ATOM      3  H   UNL     1       6.245   8.362   0.217  0.00  0.00    +0.000 HD
ENDROOT
BRANCH   1   4
ATOM      4  C   UNL     1       7.501   9.408  -1.177  0.00  0.00    +0.000 C 
ATOM      5  H   UNL     1       6.911   8.938  -1.974  0.00  0.00    +0.000 HD
ATOM      6  H   UNL     1       8.552   9.343  -1.482  0.00  0.00    +0.000 HD
BRANCH   4   7
ATOM      7  C   UNL     1       7.104  10.881  -1.051  0.00  0.00    +0.000 C 
ATOM      8  H   UNL     1       7.503  11.289  -0.115  0.00  0.00    +0.000 HD
ATOM      9  H   UNL     1       7.554  11.451  -1.872  0.00  0.00    +0.000 HD
BRANCH   7  10
ATOM     10  C   UNL     1       5.582  11.048  -1.080  0.00  0.00    +0.000 C 
ATOM     11  H   UNL     1       5.294  11.678  -1.930  0.00  0.00    +0.000 HD
ATOM     12  H   UNL     1       5.108  10.071  -1.225  0.00  0.00    +0.000 HD
BRANCH  10  13
ATOM     13  C   UNL     1       5.069  11.680   0.217  0.00  0.00    +0.000 C 
ATOM     14  H   UNL     1       5.062  12.773   0.112  0.00  0.00    +0.000 HD
ATOM     15  H   UNL     1       5.770  11.451   1.030  0.00  0.00    +0.000 HD
BRANCH  13  16
ATOM     16  C   UNL     1       3.674  11.196   0.599  0.00  0.00    +0.000 C 
ATOM     17  H   UNL     1       3.142  11.963   1.172  0.00  0.00    +0.000 HD
ATOM     18  H   UNL     1       3.090  10.968  -0.298  0.00  0.00    +0.000 HD
BRANCH  16  20
ATOM     19  O   UNL     1       3.171   9.837   2.526  0.00  0.00    +0.000 OA
ATOM     20  C   UNL     1       3.728   9.944   1.438  0.00  0.00    +0.000 C 
ATOM     21  H   UNL     1       4.299   9.106   1.005  0.00  0.00    +0.000 HD
ENDBRANCH  16  20
ENDBRANCH  13  16
ENDBRANCH  10  13
ENDBRANCH   7  10
ENDBRANCH   4   7
ENDBRANCH   1   4
BRANCH   1  22
ATOM     22  C   UNL     1       7.765   9.310   1.403  0.00  0.00    +0.000 C 
ATOM     23  H   UNL     1       7.434  10.355   1.380  0.00  0.00    +0.000 HD
ATOM     24  H   UNL     1       8.862   9.326   1.431  0.00  0.00    +0.000 HD
BRANCH  22  25
ATOM     25  C   UNL     1       7.234   8.644   2.674  0.00  0.00    +0.000 C 
ATOM     26  H   UNL     1       8.078   8.251   3.256  0.00  0.00    +0.000 HD
ATOM     27  H   UNL     1       6.743   9.400   3.298  0.00  0.00    +0.000 HD
BRANCH  25  28
ATOM     28  C   UNL     1       6.246   7.505   2.395  0.00  0.00    +0.000 C 
ATOM     29  H   UNL     1       6.704   6.800   1.690  0.00  0.00    +0.000 HD
ATOM     30  H   UNL     1       5.359   7.918   1.899  0.00  0.00    +0.000 HD
BRANCH  28  31
ATOM     31  C   UNL     1       5.815   6.754   3.655  0.00  0.00    +0.000 C 
ATOM     32  H   UNL     1       6.138   5.709   3.592  0.00  0.00    +0.000 HD
ATOM     33  H   UNL     1       4.721   6.754   3.730  0.00  0.00    +0.000 HD
BRANCH  31  34
ATOM     34  C   UNL     1       6.406   7.387   4.906  0.00  0.00    +0.000 C 
ATOM     35  H   UNL     1       6.944   6.645   5.504  0.00  0.00    +0.000 HD
ATOM     36  H   UNL     1       5.623   7.828   5.530  0.00  0.00    +0.000 HD
ATOM     37  H   UNL     1       7.110   8.180   4.633  0.00  0.00    +0.000 HD
ENDBRANCH  31  34
ENDBRANCH  28  31
ENDBRANCH  25  28
ENDBRANCH  22  25
ENDBRANCH   1  22
TORSDOF 11
ENDMDL
MODEL 2
REMARK VINA RESULT:    -4.827      1.550      4.634
REMARK INTER + INTRA:          -8.890
REMARK INTER:                  -7.909
REMARK INTRA:                  -0.981
REMARK UNBOUND:                -1.100
REMARK  Name = 8194
REMARK  11 active torsions:
REMARK  status: ('A' for Active; 'I' for Inactive)
REMARK    1  A    between atoms: C_2  and  C_3
REMARK    2  A    between atoms: C_2  and  C_4
REMARK    3  A    between atoms: C_3  and  C_5
REMARK    4  A    between atoms: C_4  and  C_6
REMARK    5  A    between atoms: C_5  and  C_7
REMARK    6  A    between atoms: C_6  and  C_8
REMARK    7  A    between atoms: C_7  and  C_9
REMARK    8  A    between atoms: C_8  and  C_10
REMARK    9  A    between atoms: C_9  and  C_11
REMARK   10  A    between atoms: C_10  and  C_12
REMARK   11  A    between atoms: C_11  and  C_13
REMARK                            x       y       z     vdW  Elec       q    Type
REMARK                         _______ _______ _______ _____ _____    ______ ____
ROOT
ATOM      1  C   UNL     1       7.534   8.695  -0.915  0.00  0.00    +0.000 C 
ATOM      2  H   UNL     1       7.119   8.578  -1.924  0.00  0.00    +0.000 HD
ATOM      3  H   UNL     1       8.484   8.146  -0.906  0.00  0.00    +0.000 HD
ENDROOT
BRANCH   1   4
ATOM      4  C   UNL     1       6.584   8.035   0.088  0.00  0.00    +0.000 C 
ATOM      5  H   UNL     1       6.591   6.950  -0.078  0.00  0.00    +0.000 HD
ATOM      6  H   UNL     1       5.562   8.378  -0.113  0.00  0.00    +0.000 HD
BRANCH   4   7
ATOM      7  C   UNL     1       6.937   8.329   1.548  0.00  0.00    +0.000 C 
ATOM      8  H   UNL     1       7.769   7.689   1.860  0.00  0.00    +0.000 HD
ATOM      9  H   UNL     1       7.276   9.368   1.637  0.00  0.00    +0.000 HD
BRANCH   7  10
ATOM     10  C   UNL     1       5.734   8.099   2.465  0.00  0.00    +0.000 C 
ATOM     11  H   UNL     1       5.588   8.971   3.113  0.00  0.00    +0.000 HD
ATOM     12  H   UNL     1       4.826   7.988   1.861  0.00  0.00    +0.000 HD
BRANCH  10  13
ATOM     13  C   UNL     1       5.928   6.849   3.331  0.00  0.00    +0.000 C 
ATOM     14  H   UNL     1       6.717   6.224   2.893  0.00  0.00    +0.000 HD
ATOM     15  H   UNL     1       5.008   6.251   3.308  0.00  0.00    +0.000 HD
BRANCH  13  16
ATOM     16  C   UNL     1       6.284   7.181   4.777  0.00  0.00    +0.000 C 
ATOM     17  H   UNL     1       5.803   6.477   5.464  0.00  0.00    +0.000 HD
ATOM     18  H   UNL     1       7.366   7.125   4.926  0.00  0.00    +0.000 HD
BRANCH  16  20
ATOM     19  O   UNL     1       6.518   9.328   5.847  0.00  0.00    +0.000 OA
ATOM     20  C   UNL     1       5.843   8.572   5.155  0.00  0.00    +0.000 C 
ATOM     21  H   UNL     1       4.863   8.886   4.757  0.00  0.00    +0.000 HD
ENDBRANCH  16  20
ENDBRANCH  13  16
ENDBRANCH  10  13
ENDBRANCH   7  10
ENDBRANCH   4   7
ENDBRANCH   1   4
BRANCH   1  22
ATOM     22  C   UNL     1       7.831  10.179  -0.674  0.00  0.00    +0.000 C 
ATOM     23  H   UNL     1       8.775  10.441  -1.166  0.00  0.00    +0.000 HD
ATOM     24  H   UNL     1       7.978  10.344   0.401  0.00  0.00    +0.000 HD
BRANCH  22  25
ATOM     25  C   UNL     1       6.726  11.108  -1.183  0.00  0.00    +0.000 C 
ATOM     26  H   UNL     1       7.182  11.967  -1.691  0.00  0.00    +0.000 HD
ATOM     27  H   UNL     1       6.127  10.576  -1.933  0.00  0.00    +0.000 HD
BRANCH  25  28
ATOM     28  C   UNL     1       5.801  11.616  -0.071  0.00  0.00    +0.000 C 
ATOM     29  H   UNL     1       5.918  12.702   0.022  0.00  0.00    +0.000 HD
ATOM     30  H   UNL     1       6.120  11.180   0.884  0.00  0.00    +0.000 HD
BRANCH  28  31
ATOM     31  C   UNL     1       4.328  11.283  -0.309  0.00  0.00    +0.000 C 
ATOM     32  H   UNL     1       4.240  10.531  -1.102  0.00  0.00    +0.000 HD
ATOM     33  H   UNL     1       3.796  12.180  -0.650  0.00  0.00    +0.000 HD
BRANCH  31  34
ATOM     34  C   UNL     1       3.668  10.757   0.957  0.00  0.00    +0.000 C 
ATOM     35  H   UNL     1       4.410  10.329   1.637  0.00  0.00    +0.000 HD
ATOM     36  H   UNL     1       2.930   9.985   0.722  0.00  0.00    +0.000 HD
ATOM     37  H   UNL     1       3.154  11.569   1.481  0.00  0.00    +0.000 HD
ENDBRANCH  31  34
ENDBRANCH  28  31
ENDBRANCH  25  28
ENDBRANCH  22  25
ENDBRANCH   1  22
TORSDOF 11
ENDMDL
MODEL 3
REMARK VINA RESULT:    -4.623      1.928      4.973
REMARK INTER + INTRA:          -8.561
REMARK INTER:                  -7.481
REMARK INTRA:                  -1.080
REMARK UNBOUND:                -1.100
REMARK  Name = 8194
REMARK  11 active torsions:
REMARK  status: ('A' for Active; 'I' for Inactive)
REMARK    1  A    between atoms: C_2  and  C_3
REMARK    2  A    between atoms: C_2  and  C_4
REMARK    3  A    between atoms: C_3  and  C_5
REMARK    4  A    between atoms: C_4  and  C_6
REMARK    5  A    between atoms: C_5  and  C_7
REMARK    6  A    between atoms: C_6  and  C_8
REMARK    7  A    between atoms: C_7  and  C_9
REMARK    8  A    between atoms: C_8  and  C_10
REMARK    9  A    between atoms: C_9  and  C_11
REMARK   10  A    between atoms: C_10  and  C_12
REMARK   11  A    between atoms: C_11  and  C_13
REMARK                            x       y       z     vdW  Elec       q    Type
REMARK                         _______ _______ _______ _____ _____    ______ ____
ROOT
ATOM      1  C   UNL     1       3.822  10.651   0.806  0.00  0.00    +0.000 C 
ATOM      2  H   UNL     1       4.346  10.977   1.713  0.00  0.00    +0.000 HD
ATOM      3  H   UNL     1       2.845  11.150   0.817  0.00  0.00    +0.000 HD
ENDROOT
BRANCH   1   4
ATOM      4  C   UNL     1       3.595   9.138   0.887  0.00  0.00    +0.000 C 
ATOM      5  H   UNL     1       4.357   8.632   0.282  0.00  0.00    +0.000 HD
ATOM      6  H   UNL     1       2.624   8.901   0.434  0.00  0.00    +0.000 HD
BRANCH   4   7
ATOM      7  C   UNL     1       3.632   8.591   2.315  0.00  0.00    +0.000 C 
ATOM      8  H   UNL     1       2.996   9.208   2.961  0.00  0.00    +0.000 HD
ATOM      9  H   UNL     1       3.218   7.576   2.327  0.00  0.00    +0.000 HD
BRANCH   7  10
ATOM     10  C   UNL     1       5.061   8.572   2.863  0.00  0.00    +0.000 C 
ATOM     11  H   UNL     1       5.747   9.006   2.127  0.00  0.00    +0.000 HD
ATOM     12  H   UNL     1       5.117   9.193   3.765  0.00  0.00    +0.000 HD
BRANCH  10  13
ATOM     13  C   UNL     1       5.508   7.145   3.195  0.00  0.00    +0.000 C 
ATOM     14  H   UNL     1       6.152   6.769   2.390  0.00  0.00    +0.000 HD
ATOM     15  H   UNL     1       4.628   6.489   3.220  0.00  0.00    +0.000 HD
BRANCH  13  16
ATOM     16  C   UNL     1       6.248   7.050   4.525  0.00  0.00    +0.000 C 
ATOM     17  H   UNL     1       5.547   6.864   5.346  0.00  0.00    +0.000 HD
ATOM     18  H   UNL     1       6.976   6.233   4.501  0.00  0.00    +0.000 HD
BRANCH  16  20
ATOM     19  O   UNL     1       7.776   8.429   5.781  0.00  0.00    +0.000 OA
ATOM     20  C   UNL     1       7.000   8.320   4.837  0.00  0.00    +0.000 C 
ATOM     21  H   UNL     1       6.818   9.162   4.148  0.00  0.00    +0.000 HD
ENDBRANCH  16  20
ENDBRANCH  13  16
ENDBRANCH  10  13
ENDBRANCH   7  10
ENDBRANCH   4   7
ENDBRANCH   1   4
BRANCH   1  22
ATOM     22  C   UNL     1       4.602  11.143  -0.418  0.00  0.00    +0.000 C 
ATOM     23  H   UNL     1       4.050  11.965  -0.888  0.00  0.00    +0.000 HD
ATOM     24  H   UNL     1       4.655  10.334  -1.156  0.00  0.00    +0.000 HD
BRANCH  22  25
ATOM     25  C   UNL     1       6.019  11.617  -0.082  0.00  0.00    +0.000 C 
ATOM     26  H   UNL     1       6.147  12.649  -0.434  0.00  0.00    +0.000 HD
ATOM     27  H   UNL     1       6.142  11.635   1.008  0.00  0.00    +0.000 HD
BRANCH  25  28
ATOM     28  C   UNL     1       7.113  10.738  -0.697  0.00  0.00    +0.000 C 
ATOM     29  H   UNL     1       7.998  11.355  -0.895  0.00  0.00    +0.000 HD
ATOM     30  H   UNL     1       6.765  10.363  -1.668  0.00  0.00    +0.000 HD
BRANCH  28  31
ATOM     31  C   UNL     1       7.509   9.556   0.187  0.00  0.00    +0.000 C 
ATOM     32  H   UNL     1       7.116   9.702   1.200  0.00  0.00    +0.000 HD
ATOM     33  H   UNL     1       8.602   9.501   0.266  0.00  0.00    +0.000 HD
BRANCH  31  34
ATOM     34  C   UNL     1       6.978   8.244  -0.372  0.00  0.00    +0.000 C 
ATOM     35  H   UNL     1       7.763   7.700  -0.907  0.00  0.00    +0.000 HD
ATOM     36  H   UNL     1       6.148   8.419  -1.063  0.00  0.00    +0.000 HD
ATOM     37  H   UNL     1       6.615   7.606   0.440  0.00  0.00    +0.000 HD
ENDBRANCH  31  34
ENDBRANCH  28  31
ENDBRANCH  25  28
ENDBRANCH  22  25
ENDBRANCH   1  22
TORSDOF 11
ENDMDL
MODEL 4
REMARK VINA RESULT:    -4.585      2.227      3.675
REMARK INTER + INTRA:          -8.501
REMARK INTER:                  -7.441
REMARK INTRA:                  -1.059
REMARK UNBOUND:                -1.100
REMARK  Name = 8194
REMARK  11 active torsions:
REMARK  status: ('A' for Active; 'I' for Inactive)
REMARK    1  A    between atoms: C_2  and  C_3
REMARK    2  A    between atoms: C_2  and  C_4
REMARK    3  A    between atoms: C_3  and  C_5
REMARK    4  A    between atoms: C_4  and  C_6
REMARK    5  A    between atoms: C_5  and  C_7
REMARK    6  A    between atoms: C_6  and  C_8
REMARK    7  A    between atoms: C_7  and  C_9
REMARK    8  A    between atoms: C_8  and  C_10
REMARK    9  A    between atoms: C_9  and  C_11
REMARK   10  A    between atoms: C_10  and  C_12
REMARK   11  A    between atoms: C_11  and  C_13
REMARK                            x       y       z     vdW  Elec       q    Type
REMARK                         _______ _______ _______ _____ _____    ______ ____
ROOT
ATOM      1  C   UNL     1       3.674  10.137   0.182  0.00  0.00    +0.000 C 
ATOM      2  H   UNL     1       4.374   9.418  -0.261  0.00  0.00    +0.000 HD
ATOM      3  H   UNL     1       2.687   9.907  -0.238  0.00  0.00    +0.000 HD
ENDROOT
BRANCH   1   4
ATOM      4  C   UNL     1       4.071  11.549  -0.261  0.00  0.00    +0.000 C 
ATOM      5  H   UNL     1       3.348  12.266   0.148  0.00  0.00    +0.000 HD
ATOM      6  H   UNL     1       3.995  11.612  -1.353  0.00  0.00    +0.000 HD
BRANCH   4   7
ATOM      7  C   UNL     1       5.484  11.948   0.171  0.00  0.00    +0.000 C 
ATOM      8  H   UNL     1       5.666  12.996  -0.094  0.00  0.00    +0.000 HD
ATOM      9  H   UNL     1       5.568  11.870   1.261  0.00  0.00    +0.000 HD
BRANCH   7  10
ATOM     10  C   UNL     1       6.537  11.056  -0.492  0.00  0.00    +0.000 C 
ATOM     11  H   UNL     1       6.054  10.375  -1.202  0.00  0.00    +0.000 HD
ATOM     12  H   UNL     1       7.237  11.677  -1.063  0.00  0.00    +0.000 HD
BRANCH  10  13
ATOM     13  C   UNL     1       7.309  10.241   0.551  0.00  0.00    +0.000 C 
ATOM     14  H   UNL     1       6.854  10.391   1.538  0.00  0.00    +0.000 HD
ATOM     15  H   UNL     1       8.334  10.625   0.620  0.00  0.00    +0.000 HD
BRANCH  13  16
ATOM     16  C   UNL     1       7.345   8.750   0.228  0.00  0.00    +0.000 C 
ATOM     17  H   UNL     1       8.055   8.231   0.879  0.00  0.00    +0.000 HD
ATOM     18  H   UNL     1       6.356   8.304   0.371  0.00  0.00    +0.000 HD
BRANCH  16  20
ATOM     19  O   UNL     1       8.919   8.543  -1.586  0.00  0.00    +0.000 OA
ATOM     20  C   UNL     1       7.755   8.499  -1.201  0.00  0.00    +0.000 C 
ATOM     21  H   UNL     1       6.934   8.257  -1.896  0.00  0.00    +0.000 HD
ENDBRANCH  16  20
ENDBRANCH  13  16
ENDBRANCH  10  13
ENDBRANCH   7  10
ENDBRANCH   4   7
ENDBRANCH   1   4
BRANCH   1  22
ATOM     22  C   UNL     1       3.621   9.904   1.696  0.00  0.00    +0.000 C 
ATOM     23  H   UNL     1       2.610  10.126   2.058  0.00  0.00    +0.000 HD
ATOM     24  H   UNL     1       4.297  10.614   2.190  0.00  0.00    +0.000 HD
BRANCH  22  25
ATOM     25  C   UNL     1       3.998   8.477   2.102  0.00  0.00    +0.000 C 
ATOM     26  H   UNL     1       3.083   7.892   2.257  0.00  0.00    +0.000 HD
ATOM     27  H   UNL     1       4.543   8.002   1.278  0.00  0.00    +0.000 HD
BRANCH  25  28
ATOM     28  C   UNL     1       4.853   8.415   3.372  0.00  0.00    +0.000 C 
ATOM     29  H   UNL     1       4.193   8.354   4.245  0.00  0.00    +0.000 HD
ATOM     30  H   UNL     1       5.419   9.350   3.467  0.00  0.00    +0.000 HD
BRANCH  28  31
ATOM     31  C   UNL     1       5.826   7.235   3.390  0.00  0.00    +0.000 C 
ATOM     32  H   UNL     1       6.645   7.418   2.685  0.00  0.00    +0.000 HD
ATOM     33  H   UNL     1       5.310   6.324   3.062  0.00  0.00    +0.000 HD
BRANCH  31  34
ATOM     34  C   UNL     1       6.402   7.013   4.781  0.00  0.00    +0.000 C 
ATOM     35  H   UNL     1       6.887   6.035   4.852  0.00  0.00    +0.000 HD
ATOM     36  H   UNL     1       5.619   7.066   5.543  0.00  0.00    +0.000 HD
ATOM     37  H   UNL     1       7.149   7.781   5.008  0.00  0.00    +0.000 HD
ENDBRANCH  31  34
ENDBRANCH  28  31
ENDBRANCH  25  28
ENDBRANCH  22  25
ENDBRANCH   1  22
TORSDOF 11
ENDMDL
MODEL 5
REMARK VINA RESULT:    -4.490     13.849     15.868
REMARK INTER + INTRA:          -8.347
REMARK INTER:                  -7.127
REMARK INTRA:                  -1.220
REMARK UNBOUND:                -1.100
REMARK  Name = 8194
REMARK  11 active torsions:
REMARK  status: ('A' for Active; 'I' for Inactive)
REMARK    1  A    between atoms: C_2  and  C_3
REMARK    2  A    between atoms: C_2  and  C_4
REMARK    3  A    between atoms: C_3  and  C_5
REMARK    4  A    between atoms: C_4  and  C_6
REMARK    5  A    between atoms: C_5  and  C_7
REMARK    6  A    between atoms: C_6  and  C_8
REMARK    7  A    between atoms: C_7  and  C_9
REMARK    8  A    between atoms: C_8  and  C_10
REMARK    9  A    between atoms: C_9  and  C_11
REMARK   10  A    between atoms: C_10  and  C_12
REMARK   11  A    between atoms: C_11  and  C_13
REMARK                            x       y       z     vdW  Elec       q    Type
REMARK                         _______ _______ _______ _____ _____    ______ ____
ROOT
ATOM      1  C   UNL     1      -2.382   9.050  -8.923  0.00  0.00    +0.000 C 
ATOM      2  H   UNL     1      -2.595   9.722  -8.083  0.00  0.00    +0.000 HD
ATOM      3  H   UNL     1      -1.342   8.721  -8.800  0.00  0.00    +0.000 HD
ENDROOT
BRANCH   1   4
ATOM      4  C   UNL     1      -2.487   9.845 -10.229  0.00  0.00    +0.000 C 
ATOM      5  H   UNL     1      -2.998  10.794 -10.026  0.00  0.00    +0.000 HD
ATOM      6  H   UNL     1      -3.119   9.289 -10.932  0.00  0.00    +0.000 HD
BRANCH   4   7
ATOM      7  C   UNL     1      -1.132  10.125 -10.882  0.00  0.00    +0.000 C 
ATOM      8  H   UNL     1      -1.200  11.033 -11.493  0.00  0.00    +0.000 HD
ATOM      9  H   UNL     1      -0.383  10.313 -10.103  0.00  0.00    +0.000 HD
BRANCH   7  10
ATOM     10  C   UNL     1      -0.684   8.948 -11.754  0.00  0.00    +0.000 C 
ATOM     11  H   UNL     1       0.394   8.787 -11.635  0.00  0.00    +0.000 HD
ATOM     12  H   UNL     1      -1.188   8.033 -11.422  0.00  0.00    +0.000 HD
BRANCH  10  13
ATOM     13  C   UNL     1      -1.001   9.201 -13.231  0.00  0.00    +0.000 C 
ATOM     14  H   UNL     1      -1.533  10.156 -13.331  0.00  0.00    +0.000 HD
ATOM     15  H   UNL     1      -1.689   8.424 -13.589  0.00  0.00    +0.000 HD
BRANCH  13  16
ATOM     16  C   UNL     1       0.247   9.218 -14.109  0.00  0.00    +0.000 C 
ATOM     17  H   UNL     1       1.135   8.957 -13.524  0.00  0.00    +0.000 HD
ATOM     18  H   UNL     1       0.148   8.498 -14.928  0.00  0.00    +0.000 HD
BRANCH  16  20
ATOM     19  O   UNL     1       0.269  11.628 -14.128  0.00  0.00    +0.000 OA
ATOM     20  C   UNL     1       0.478  10.576 -14.723  0.00  0.00    +0.000 C 
ATOM     21  H   UNL     1       0.864  10.571 -15.756  0.00  0.00    +0.000 HD
ENDBRANCH  16  20
ENDBRANCH  13  16
ENDBRANCH  10  13
ENDBRANCH   7  10
ENDBRANCH   4   7
ENDBRANCH   1   4
BRANCH   1  22
ATOM     22  C   UNL     1      -3.293   7.822  -8.816  0.00  0.00    +0.000 C 
ATOM     23  H   UNL     1      -4.338   8.152  -8.793  0.00  0.00    +0.000 HD
ATOM     24  H   UNL     1      -3.100   7.317  -7.861  0.00  0.00    +0.000 HD
BRANCH  22  25
ATOM     25  C   UNL     1      -3.105   6.827  -9.964  0.00  0.00    +0.000 C 
ATOM     26  H   UNL     1      -2.231   7.122 -10.558  0.00  0.00    +0.000 HD
ATOM     27  H   UNL     1      -2.886   5.836  -9.547  0.00  0.00    +0.000 HD
BRANCH  25  28
ATOM     28  C   UNL     1      -4.326   6.726 -10.884  0.00  0.00    +0.000 C 
ATOM     29  H   UNL     1      -5.114   7.389 -10.507  0.00  0.00    +0.000 HD
ATOM     30  H   UNL     1      -4.724   5.704 -10.837  0.00  0.00    +0.000 HD
BRANCH  28  31
ATOM     31  C   UNL     1      -4.019   7.079 -12.339  0.00  0.00    +0.000 C 
ATOM     32  H   UNL     1      -4.367   6.276 -12.998  0.00  0.00    +0.000 HD
ATOM     33  H   UNL     1      -2.935   7.169 -12.478  0.00  0.00    +0.000 HD
BRANCH  31  34
ATOM     34  C   UNL     1      -4.688   8.385 -12.745  0.00  0.00    +0.000 C 
ATOM     35  H   UNL     1      -5.776   8.313 -12.653  0.00  0.00    +0.000 HD
ATOM     36  H   UNL     1      -4.446   8.644 -13.780  0.00  0.00    +0.000 HD
ATOM     37  H   UNL     1      -4.346   9.201 -12.101  0.00  0.00    +0.000 HD
ENDBRANCH  31  34
ENDBRANCH  28  31
ENDBRANCH  25  28
ENDBRANCH  22  25
ENDBRANCH   1  22
TORSDOF 11
ENDMDL
MODEL 6
REMARK VINA RESULT:    -4.344     13.910     15.772
REMARK INTER + INTRA:          -8.111
REMARK INTER:                  -7.376
REMARK INTRA:                  -0.735
REMARK UNBOUND:                -1.100
REMARK  Name = 8194
REMARK  11 active torsions:
REMARK  status: ('A' for Active; 'I' for Inactive)
REMARK    1  A    between atoms: C_2  and  C_3
REMARK    2  A    between atoms: C_2  and  C_4
REMARK    3  A    between atoms: C_3  and  C_5
REMARK    4  A    between atoms: C_4  and  C_6
REMARK    5  A    between atoms: C_5  and  C_7
REMARK    6  A    between atoms: C_6  and  C_8
REMARK    7  A    between atoms: C_7  and  C_9
REMARK    8  A    between atoms: C_8  and  C_10
REMARK    9  A    between atoms: C_9  and  C_11
REMARK   10  A    between atoms: C_10  and  C_12
REMARK   11  A    between atoms: C_11  and  C_13
REMARK                            x       y       z     vdW  Elec       q    Type
REMARK                         _______ _______ _______ _____ _____    ______ ____
ROOT
ATOM      1  C   UNL     1      -8.575  11.459   6.920  0.00  0.00    +0.000 C 
ATOM      2  H   UNL     1      -7.641  11.921   7.262  0.00  0.00    +0.000 HD
ATOM      3  H   UNL     1      -9.296  12.277   6.790  0.00  0.00    +0.000 HD
ENDROOT
BRANCH   1   4
ATOM      4  C   UNL     1      -9.094  10.527   8.019  0.00  0.00    +0.000 C 
ATOM      5  H   UNL     1     -10.173  10.688   8.140  0.00  0.00    +0.000 HD
ATOM      6  H   UNL     1      -8.625  10.804   8.970  0.00  0.00    +0.000 HD
BRANCH   4   7
ATOM      7  C   UNL     1      -8.828   9.046   7.738  0.00  0.00    +0.000 C 
ATOM      8  H   UNL     1      -9.774   8.492   7.763  0.00  0.00    +0.000 HD
ATOM      9  H   UNL     1      -8.413   8.936   6.729  0.00  0.00    +0.000 HD
BRANCH   7  10
ATOM     10  C   UNL     1      -7.856   8.455   8.763  0.00  0.00    +0.000 C 
ATOM     11  H   UNL     1      -8.227   7.484   9.110  0.00  0.00    +0.000 HD
ATOM     12  H   UNL     1      -6.884   8.281   8.288  0.00  0.00    +0.000 HD
BRANCH  10  13
ATOM     13  C   UNL     1      -7.680   9.391   9.963  0.00  0.00    +0.000 C 
ATOM     14  H   UNL     1      -8.053   8.895  10.868  0.00  0.00    +0.000 HD
ATOM     15  H   UNL     1      -8.303  10.282   9.818  0.00  0.00    +0.000 HD
BRANCH  13  16
ATOM     16  C   UNL     1      -6.230   9.814  10.176  0.00  0.00    +0.000 C 
ATOM     17  H   UNL     1      -5.873   9.491  11.159  0.00  0.00    +0.000 HD
ATOM     18  H   UNL     1      -5.586   9.368   9.411  0.00  0.00    +0.000 HD
BRANCH  16  20
ATOM     19  O   UNL     1      -6.908  12.104  10.501  0.00  0.00    +0.000 OA
ATOM     20  C   UNL     1      -6.067  11.310  10.091  0.00  0.00    +0.000 C 
ATOM     21  H   UNL     1      -5.124  11.662   9.640  0.00  0.00    +0.000 HD
ENDBRANCH  16  20
ENDBRANCH  13  16
ENDBRANCH  10  13
ENDBRANCH   7  10
ENDBRANCH   4   7
ENDBRANCH   1   4
BRANCH   1  22
ATOM     22  C   UNL     1      -8.331  10.808   5.554  0.00  0.00    +0.000 C 
ATOM     23  H   UNL     1      -9.277  10.768   5.002  0.00  0.00    +0.000 HD
ATOM     24  H   UNL     1      -8.009   9.770   5.706  0.00  0.00    +0.000 HD
BRANCH  22  25
ATOM     25  C   UNL     1      -7.287  11.544   4.711  0.00  0.00    +0.000 C 
ATOM     26  H   UNL     1      -6.283  11.281   5.068  0.00  0.00    +0.000 HD
ATOM     27  H   UNL     1      -7.355  11.197   3.672  0.00  0.00    +0.000 HD
BRANCH  25  28
ATOM     28  C   UNL     1      -7.447  13.068   4.742  0.00  0.00    +0.000 C 
ATOM     29  H   UNL     1      -8.310  13.324   5.369  0.00  0.00    +0.000 HD
ATOM     30  H   UNL     1      -7.676  13.422   3.729  0.00  0.00    +0.000 HD
BRANCH  28  31
ATOM     31  C   UNL     1      -6.209  13.796   5.263  0.00  0.00    +0.000 C 
ATOM     32  H   UNL     1      -5.345  13.558   4.632  0.00  0.00    +0.000 HD
ATOM     33  H   UNL     1      -5.976  13.453   6.278  0.00  0.00    +0.000 HD
BRANCH  31  34
ATOM     34  C   UNL     1      -6.418  15.304   5.277  0.00  0.00    +0.000 C 
ATOM     35  H   UNL     1      -6.804  15.636   6.246  0.00  0.00    +0.000 HD
ATOM     36  H   UNL     1      -7.127  15.608   4.502  0.00  0.00    +0.000 HD
ATOM     37  H   UNL     1      -5.470  15.819   5.093  0.00  0.00    +0.000 HD
ENDBRANCH  31  34
ENDBRANCH  28  31
ENDBRANCH  25  28
ENDBRANCH  22  25
ENDBRANCH   1  22
TORSDOF 11
ENDMDL
MODEL 7
REMARK VINA RESULT:    -4.318     14.183     15.693
REMARK INTER + INTRA:          -8.069
REMARK INTER:                  -7.245
REMARK INTRA:                  -0.825
REMARK UNBOUND:                -1.100
REMARK  Name = 8194
REMARK  11 active torsions:
REMARK  status: ('A' for Active; 'I' for Inactive)
REMARK    1  A    between atoms: C_2  and  C_3
REMARK    2  A    between atoms: C_2  and  C_4
REMARK    3  A    between atoms: C_3  and  C_5
REMARK    4  A    between atoms: C_4  and  C_6
REMARK    5  A    between atoms: C_5  and  C_7
REMARK    6  A    between atoms: C_6  and  C_8
REMARK    7  A    between atoms: C_7  and  C_9
REMARK    8  A    between atoms: C_8  and  C_10
REMARK    9  A    between atoms: C_9  and  C_11
REMARK   10  A    between atoms: C_10  and  C_12
REMARK   11  A    between atoms: C_11  and  C_13
REMARK                            x       y       z     vdW  Elec       q    Type
REMARK                         _______ _______ _______ _____ _____    ______ ____
ROOT
ATOM      1  C   UNL     1      -6.928  13.859   7.457  0.00  0.00    +0.000 C 
ATOM      2  H   UNL     1      -7.198  14.897   7.684  0.00  0.00    +0.000 HD
ATOM      3  H   UNL     1      -7.870  13.328   7.270  0.00  0.00    +0.000 HD
ENDROOT
BRANCH   1   4
ATOM      4  C   UNL     1      -6.262  13.242   8.691  0.00  0.00    +0.000 C 
ATOM      5  H   UNL     1      -6.163  14.015   9.465  0.00  0.00    +0.000 HD
ATOM      6  H   UNL     1      -5.245  12.929   8.426  0.00  0.00    +0.000 HD
BRANCH   4   7
ATOM      7  C   UNL     1      -7.025  12.045   9.262  0.00  0.00    +0.000 C 
ATOM      8  H   UNL     1      -7.900  12.398   9.819  0.00  0.00    +0.000 HD
ATOM      9  H   UNL     1      -7.394  11.422   8.438  0.00  0.00    +0.000 HD
BRANCH   7  10
ATOM     10  C   UNL     1      -6.132  11.207  10.180  0.00  0.00    +0.000 C 
ATOM     11  H   UNL     1      -5.081  11.340   9.900  0.00  0.00    +0.000 HD
ATOM     12  H   UNL     1      -6.239  11.555  11.214  0.00  0.00    +0.000 HD
BRANCH  10  13
ATOM     13  C   UNL     1      -6.494   9.720  10.100  0.00  0.00    +0.000 C 
ATOM     14  H   UNL     1      -6.392   9.267  11.095  0.00  0.00    +0.000 HD
ATOM     15  H   UNL     1      -5.772   9.209   9.450  0.00  0.00    +0.000 HD
BRANCH  13  16
ATOM     16  C   UNL     1      -7.907   9.483   9.576  0.00  0.00    +0.000 C 
ATOM     17  H   UNL     1      -8.376  10.429   9.287  0.00  0.00    +0.000 HD
ATOM     18  H   UNL     1      -7.884   8.828   8.699  0.00  0.00    +0.000 HD
BRANCH  16  20
ATOM     19  O   UNL     1      -8.671   7.650  10.943  0.00  0.00    +0.000 OA
ATOM     20  C   UNL     1      -8.784   8.827  10.611  0.00  0.00    +0.000 C 
ATOM     21  H   UNL     1      -9.543   9.479  11.074  0.00  0.00    +0.000 HD
ENDBRANCH  16  20
ENDBRANCH  13  16
ENDBRANCH  10  13
ENDBRANCH   7  10
ENDBRANCH   4   7
ENDBRANCH   1   4
BRANCH   1  22
ATOM     22  C   UNL     1      -6.096  13.836   6.170  0.00  0.00    +0.000 C 
ATOM     23  H   UNL     1      -5.264  13.133   6.294  0.00  0.00    +0.000 HD
ATOM     24  H   UNL     1      -5.653  14.827   6.014  0.00  0.00    +0.000 HD
BRANCH  22  25
ATOM     25  C   UNL     1      -6.906  13.441   4.933  0.00  0.00    +0.000 C 
ATOM     26  H   UNL     1      -7.902  13.899   4.992  0.00  0.00    +0.000 HD
ATOM     27  H   UNL     1      -6.420  13.852   4.040  0.00  0.00    +0.000 HD
BRANCH  25  28
ATOM     28  C   UNL     1      -7.062  11.925   4.768  0.00  0.00    +0.000 C 
ATOM     29  H   UNL     1      -6.409  11.419   5.489  0.00  0.00    +0.000 HD
ATOM     30  H   UNL     1      -6.712  11.638   3.769  0.00  0.00    +0.000 HD
BRANCH  28  31
ATOM     31  C   UNL     1      -8.499  11.440   4.958  0.00  0.00    +0.000 C 
ATOM     32  H   UNL     1      -8.781  10.781   4.129  0.00  0.00    +0.000 HD
ATOM     33  H   UNL     1      -9.185  12.296   4.942  0.00  0.00    +0.000 HD
BRANCH  31  34
ATOM     34  C   UNL     1      -8.661  10.689   6.272  0.00  0.00    +0.000 C 
ATOM     35  H   UNL     1      -9.701  10.386   6.424  0.00  0.00    +0.000 HD
ATOM     36  H   UNL     1      -8.357  11.311   7.119  0.00  0.00    +0.000 HD
ATOM     37  H   UNL     1      -8.040   9.788   6.272  0.00  0.00    +0.000 HD
ENDBRANCH  31  34
ENDBRANCH  28  31
ENDBRANCH  25  28
ENDBRANCH  22  25
ENDBRANCH   1  22
TORSDOF 11
ENDMDL
MODEL 8
REMARK VINA RESULT:    -4.209     28.806     30.162
REMARK INTER + INTRA:          -7.893
REMARK INTER:                  -7.013
REMARK INTRA:                  -0.880
REMARK UNBOUND:                -1.100
REMARK  Name = 8194
REMARK  11 active torsions:
REMARK  status: ('A' for Active; 'I' for Inactive)
REMARK    1  A    between atoms: C_2  and  C_3
REMARK    2  A    between atoms: C_2  and  C_4
REMARK    3  A    between atoms: C_3  and  C_5
REMARK    4  A    between atoms: C_4  and  C_6
REMARK    5  A    between atoms: C_5  and  C_7
REMARK    6  A    between atoms: C_6  and  C_8
REMARK    7  A    between atoms: C_7  and  C_9
REMARK    8  A    between atoms: C_8  and  C_10
REMARK    9  A    between atoms: C_9  and  C_11
REMARK   10  A    between atoms: C_10  and  C_12
REMARK   11  A    between atoms: C_11  and  C_13
REMARK                            x       y       z     vdW  Elec       q    Type
REMARK                         _______ _______ _______ _____ _____    ______ ____
ROOT
ATOM      1  C   UNL     1     -20.524  -0.711   5.457  0.00  0.00    +0.000 C 
ATOM      2  H   UNL     1     -20.919   0.268   5.162  0.00  0.00    +0.000 HD
ATOM      3  H   UNL     1     -19.584  -0.845   4.906  0.00  0.00    +0.000 HD
ENDROOT
BRANCH   1   4
ATOM      4  C   UNL     1     -21.508  -1.796   5.008  0.00  0.00    +0.000 C 
ATOM      5  H   UNL     1     -22.235  -1.351   4.318  0.00  0.00    +0.000 HD
ATOM      6  H   UNL     1     -22.073  -2.146   5.880  0.00  0.00    +0.000 HD
BRANCH   4   7
ATOM      7  C   UNL     1     -20.831  -2.992   4.334  0.00  0.00    +0.000 C 
ATOM      8  H   UNL     1     -21.510  -3.427   3.592  0.00  0.00    +0.000 HD
ATOM      9  H   UNL     1     -19.939  -2.649   3.796  0.00  0.00    +0.000 HD
BRANCH   7  10
ATOM     10  C   UNL     1     -20.436  -4.055   5.361  0.00  0.00    +0.000 C 
ATOM     11  H   UNL     1     -20.153  -3.574   6.305  0.00  0.00    +0.000 HD
ATOM     12  H   UNL     1     -21.297  -4.700   5.572  0.00  0.00    +0.000 HD
BRANCH  10  13
ATOM     13  C   UNL     1     -19.268  -4.908   4.856  0.00  0.00    +0.000 C 
ATOM     14  H   UNL     1     -19.423  -5.952   5.158  0.00  0.00    +0.000 HD
ATOM     15  H   UNL     1     -18.344  -4.576   5.345  0.00  0.00    +0.000 HD
BRANCH  13  16
ATOM     16  C   UNL     1     -19.095  -4.837   3.342  0.00  0.00    +0.000 C 
ATOM     17  H   UNL     1     -19.698  -4.025   2.922  0.00  0.00    +0.000 HD
ATOM     18  H   UNL     1     -18.047  -4.657   3.085  0.00  0.00    +0.000 HD
BRANCH  16  20
ATOM     19  O   UNL     1     -19.726  -6.214   1.466  0.00  0.00    +0.000 OA
ATOM     20  C   UNL     1     -19.514  -6.121   2.672  0.00  0.00    +0.000 C 
ATOM     21  H   UNL     1     -19.612  -6.995   3.337  0.00  0.00    +0.000 HD
ENDBRANCH  16  20
ENDBRANCH  13  16
ENDBRANCH  10  13
ENDBRANCH   7  10
ENDBRANCH   4   7
ENDBRANCH   1   4
BRANCH   1  22
ATOM     22  C   UNL     1     -20.205  -0.681   6.956  0.00  0.00    +0.000 C 
ATOM     23  H   UNL     1     -20.217   0.358   7.305  0.00  0.00    +0.000 HD
ATOM     24  H   UNL     1     -19.184  -1.055   7.111  0.00  0.00    +0.000 HD
BRANCH  22  25
ATOM     25  C   UNL     1     -21.180  -1.506   7.800  0.00  0.00    +0.000 C 
ATOM     26  H   UNL     1     -21.718  -2.206   7.148  0.00  0.00    +0.000 HD
ATOM     27  H   UNL     1     -20.612  -2.111   8.517  0.00  0.00    +0.000 HD
BRANCH  25  28
ATOM     28  C   UNL     1     -22.197  -0.648   8.561  0.00  0.00    +0.000 C 
ATOM     29  H   UNL     1     -22.166   0.375   8.170  0.00  0.00    +0.000 HD
ATOM     30  H   UNL     1     -21.898  -0.593   9.615  0.00  0.00    +0.000 HD
BRANCH  28  31
ATOM     31  C   UNL     1     -23.627  -1.181   8.470  0.00  0.00    +0.000 C 
ATOM     32  H   UNL     1     -24.234  -0.514   7.847  0.00  0.00    +0.000 HD
ATOM     33  H   UNL     1     -24.081  -1.197   9.469  0.00  0.00    +0.000 HD
BRANCH  31  34
ATOM     34  C   UNL     1     -23.659  -2.584   7.882  0.00  0.00    +0.000 C 
ATOM     35  H   UNL     1     -24.627  -2.791   7.414  0.00  0.00    +0.000 HD
ATOM     36  H   UNL     1     -23.483  -3.338   8.655  0.00  0.00    +0.000 HD
ATOM     37  H   UNL     1     -22.883  -2.692   7.118  0.00  0.00    +0.000 HD
ENDBRANCH  31  34
ENDBRANCH  28  31
ENDBRANCH  25  28
ENDBRANCH  22  25
ENDBRANCH   1  22
TORSDOF 11
ENDMDL
MODEL 9
REMARK VINA RESULT:    -4.204     14.494     16.319
REMARK INTER + INTRA:          -7.885
REMARK INTER:                  -6.961
REMARK INTRA:                  -0.923
REMARK UNBOUND:                -1.100
REMARK  Name = 8194
REMARK  11 active torsions:
REMARK  status: ('A' for Active; 'I' for Inactive)
REMARK    1  A    between atoms: C_2  and  C_3
REMARK    2  A    between atoms: C_2  and  C_4
REMARK    3  A    between atoms: C_3  and  C_5
REMARK    4  A    between atoms: C_4  and  C_6
REMARK    5  A    between atoms: C_5  and  C_7
REMARK    6  A    between atoms: C_6  and  C_8
REMARK    7  A    between atoms: C_7  and  C_9
REMARK    8  A    between atoms: C_8  and  C_10
REMARK    9  A    between atoms: C_9  and  C_11
REMARK   10  A    between atoms: C_10  and  C_12
REMARK   11  A    between atoms: C_11  and  C_13
REMARK                            x       y       z     vdW  Elec       q    Type
REMARK                         _______ _______ _______ _____ _____    ______ ____
ROOT
ATOM      1  C   UNL     1      -1.685   6.821 -12.279  0.00  0.00    +0.000 C 
ATOM      2  H   UNL     1      -1.469   6.288 -11.345  0.00  0.00    +0.000 HD
ATOM      3  H   UNL     1      -1.454   6.123 -13.094  0.00  0.00    +0.000 HD
ENDROOT
BRANCH   1   4
ATOM      4  C   UNL     1      -0.741   8.023 -12.389  0.00  0.00    +0.000 C 
ATOM      5  H   UNL     1       0.029   7.802 -13.139  0.00  0.00    +0.000 HD
ATOM      6  H   UNL     1      -0.222   8.155 -11.432  0.00  0.00    +0.000 HD
BRANCH   4   7
ATOM      7  C   UNL     1      -1.454   9.325 -12.760  0.00  0.00    +0.000 C 
ATOM      8  H   UNL     1      -2.423   9.096 -13.219  0.00  0.00    +0.000 HD
ATOM      9  H   UNL     1      -1.655   9.902 -11.849  0.00  0.00    +0.000 HD
BRANCH   7  10
ATOM     10  C   UNL     1      -0.610  10.162 -13.725  0.00  0.00    +0.000 C 
ATOM     11  H   UNL     1      -1.227  10.490 -14.570  0.00  0.00    +0.000 HD
ATOM     12  H   UNL     1      -0.255  11.064 -13.214  0.00  0.00    +0.000 HD
BRANCH  10  13
ATOM     13  C   UNL     1       0.588   9.364 -14.249  0.00  0.00    +0.000 C 
ATOM     14  H   UNL     1       0.580   8.362 -13.801  0.00  0.00    +0.000 HD
ATOM     15  H   UNL     1       1.515   9.847 -13.914  0.00  0.00    +0.000 HD
BRANCH  13  16
ATOM     16  C   UNL     1       0.599   9.243 -15.769  0.00  0.00    +0.000 C 
ATOM     17  H   UNL     1       1.361   8.528 -16.095  0.00  0.00    +0.000 HD
ATOM     18  H   UNL     1      -0.375   8.900 -16.132  0.00  0.00    +0.000 HD
BRANCH  16  20
ATOM     19  O   UNL     1       1.779  10.721 -17.264  0.00  0.00    +0.000 OA
ATOM     20  C   UNL     1       0.891  10.566 -16.432  0.00  0.00    +0.000 C 
ATOM     21  H   UNL     1       0.241  11.404 -16.129  0.00  0.00    +0.000 HD
ENDBRANCH  16  20
ENDBRANCH  13  16
ENDBRANCH  10  13
ENDBRANCH   7  10
ENDBRANCH   4   7
ENDBRANCH   1   4
BRANCH   1  22
ATOM     22  C   UNL     1      -3.182   7.143 -12.328  0.00  0.00    +0.000 C 
ATOM     23  H   UNL     1      -3.647   6.564 -13.134  0.00  0.00    +0.000 HD
ATOM     24  H   UNL     1      -3.311   8.202 -12.584  0.00  0.00    +0.000 HD
BRANCH  22  25
ATOM     25  C   UNL     1      -3.908   6.847 -11.014  0.00  0.00    +0.000 C 
ATOM     26  H   UNL     1      -4.646   7.637 -10.822  0.00  0.00    +0.000 HD
ATOM     27  H   UNL     1      -4.467   5.909 -11.116  0.00  0.00    +0.000 HD
BRANCH  25  28
ATOM     28  C   UNL     1      -2.965   6.740  -9.811  0.00  0.00    +0.000 C 
ATOM     29  H   UNL     1      -1.928   6.753 -10.167  0.00  0.00    +0.000 HD
ATOM     30  H   UNL     1      -3.119   5.770  -9.322  0.00  0.00    +0.000 HD
BRANCH  28  31
ATOM     31  C   UNL     1      -3.162   7.857  -8.785  0.00  0.00    +0.000 C 
ATOM     32  H   UNL     1      -2.789   7.533  -7.807  0.00  0.00    +0.000 HD
ATOM     33  H   UNL     1      -4.231   8.072  -8.672  0.00  0.00    +0.000 HD
BRANCH  31  34
ATOM     34  C   UNL     1      -2.435   9.127  -9.204  0.00  0.00    +0.000 C 
ATOM     35  H   UNL     1      -2.998   9.666  -9.971  0.00  0.00    +0.000 HD
ATOM     36  H   UNL     1      -1.442   8.898  -9.602  0.00  0.00    +0.000 HD
ATOM     37  H   UNL     1      -2.311   9.792  -8.343  0.00  0.00    +0.000 HD
ENDBRANCH  31  34
ENDBRANCH  28  31
ENDBRANCH  25  28
ENDBRANCH  22  25
ENDBRANCH   1  22
TORSDOF 11
ENDMDL
MODEL 10
REMARK VINA RESULT:    -4.185     13.975     16.211
REMARK INTER + INTRA:          -7.855
REMARK INTER:                  -6.754
REMARK INTRA:                  -1.100
REMARK UNBOUND:                -1.100
REMARK  Name = 8194
REMARK  11 active torsions:
REMARK  status: ('A' for Active; 'I' for Inactive)
REMARK    1  A    between atoms: C_2  and  C_3
REMARK    2  A    between atoms: C_2  and  C_4
REMARK    3  A    between atoms: C_3  and  C_5
REMARK    4  A    between atoms: C_4  and  C_6
REMARK    5  A    between atoms: C_5  and  C_7
REMARK    6  A    between atoms: C_6  and  C_8
REMARK    7  A    between atoms: C_7  and  C_9
REMARK    8  A    between atoms: C_8  and  C_10
REMARK    9  A    between atoms: C_9  and  C_11
REMARK   10  A    between atoms: C_10  and  C_12
REMARK   11  A    between atoms: C_11  and  C_13
REMARK                            x       y       z     vdW  Elec       q    Type
REMARK                         _______ _______ _______ _____ _____    ______ ____
ROOT
ATOM      1  C   UNL     1      -2.478   9.845 -10.225  0.00  0.00    +0.000 C 
ATOM      2  H   UNL     1      -3.090  10.755 -10.196  0.00  0.00    +0.000 HD
ATOM      3  H   UNL     1      -2.934   9.189 -10.977  0.00  0.00    +0.000 HD
ENDROOT
BRANCH   1   4
ATOM      4  C   UNL     1      -2.562   9.151  -8.862  0.00  0.00    +0.000 C 
ATOM      5  H   UNL     1      -3.076   9.815  -8.156  0.00  0.00    +0.000 HD
ATOM      6  H   UNL     1      -1.546   9.005  -8.475  0.00  0.00    +0.000 HD
BRANCH   4   7
ATOM      7  C   UNL     1      -3.281   7.801  -8.908  0.00  0.00    +0.000 C 
ATOM      8  H   UNL     1      -3.056   7.234  -7.998  0.00  0.00    +0.000 HD
ATOM      9  H   UNL     1      -4.365   7.967  -8.928  0.00  0.00    +0.000 HD
BRANCH   7  10
ATOM     10  C   UNL     1      -2.862   6.993 -10.139  0.00  0.00    +0.000 C 
ATOM     11  H   UNL     1      -2.095   7.539 -10.699  0.00  0.00    +0.000 HD
ATOM     12  H   UNL     1      -2.417   6.043  -9.820  0.00  0.00    +0.000 HD
BRANCH  10  13
ATOM     13  C   UNL     1      -4.059   6.717 -11.055  0.00  0.00    +0.000 C 
ATOM     14  H   UNL     1      -4.952   7.204 -10.642  0.00  0.00    +0.000 HD
ATOM     15  H   UNL     1      -4.267   5.639 -11.058  0.00  0.00    +0.000 HD
BRANCH  13  16
ATOM     16  C   UNL     1      -3.832   7.195 -12.485  0.00  0.00    +0.000 C 
ATOM     17  H   UNL     1      -4.603   6.796 -13.153  0.00  0.00    +0.000 HD
ATOM     18  H   UNL     1      -3.866   8.288 -12.532  0.00  0.00    +0.000 HD
BRANCH  16  20
ATOM     19  O   UNL     1      -2.151   6.889 -14.186  0.00  0.00    +0.000 OA
ATOM     20  C   UNL     1      -2.490   6.757 -13.013  0.00  0.00    +0.000 C 
ATOM     21  H   UNL     1      -1.808   6.312 -12.270  0.00  0.00    +0.000 HD
ENDBRANCH  16  20
ENDBRANCH  13  16
ENDBRANCH  10  13
ENDBRANCH   7  10
ENDBRANCH   4   7
ENDBRANCH   1   4
BRANCH   1  22
ATOM     22  C   UNL     1      -1.068  10.216 -10.698  0.00  0.00    +0.000 C 
ATOM     23  H   UNL     1      -0.339   9.875  -9.953  0.00  0.00    +0.000 HD
ATOM     24  H   UNL     1      -0.983  11.309 -10.745  0.00  0.00    +0.000 HD
BRANCH  22  25
ATOM     25  C   UNL     1      -0.710   9.619 -12.061  0.00  0.00    +0.000 C 
ATOM     26  H   UNL     1       0.256   9.103 -11.987  0.00  0.00    +0.000 HD
ATOM     27  H   UNL     1      -1.456   8.860 -12.327  0.00  0.00    +0.000 HD
BRANCH  25  28
ATOM     28  C   UNL     1      -0.636  10.664 -13.179  0.00  0.00    +0.000 C 
ATOM     29  H   UNL     1       0.391  10.705 -13.563  0.00  0.00    +0.000 HD
ATOM     30  H   UNL     1      -0.856  11.653 -12.758  0.00  0.00    +0.000 HD
BRANCH  28  31
ATOM     31  C   UNL     1      -1.596  10.384 -14.335  0.00  0.00    +0.000 C 
ATOM     32  H   UNL     1      -1.423   9.375 -14.726  0.00  0.00    +0.000 HD
ATOM     33  H   UNL     1      -1.407  11.088 -15.154  0.00  0.00    +0.000 HD
BRANCH  31  34
ATOM     34  C   UNL     1      -3.047  10.507 -13.892  0.00  0.00    +0.000 C 
ATOM     35  H   UNL     1      -3.428  11.516 -14.075  0.00  0.00    +0.000 HD
ATOM     36  H   UNL     1      -3.151  10.288 -12.825  0.00  0.00    +0.000 HD
ATOM     37  H   UNL     1      -3.673   9.800 -14.446  0.00  0.00    +0.000 HD
ENDBRANCH  31  34
ENDBRANCH  28  31
ENDBRANCH  25  28
ENDBRANCH  22  25
ENDBRANCH   1  22
TORSDOF 11
ENDMDL
