MODEL 1
REMARK VINA RESULT:    -4.545      0.000      0.000
REMARK INTER + INTRA:          -6.388
REMARK INTER:                  -6.083
REMARK INTRA:                  -0.305
REMARK UNBOUND:                -0.249
REMARK  Name = 5363374
REMARK  7 active torsions:
REMARK  status: ('A' for Active; 'I' for Inactive)
REMARK    1  A    between atoms: O_1  and  C_8
REMARK    2  A    between atoms: O_1  and  C_9
REMARK    3  A    between atoms: C_3  and  C_4
REMARK    4  A    between atoms: C_3  and  C_5
REMARK    5  A    between atoms: C_4  and  C_6
REMARK    6  A    between atoms: C_7  and  C_8
REMARK    7  A    between atoms: C_9  and  C_10
REMARK                            x       y       z     vdW  Elec       q    Type
REMARK                         _______ _______ _______ _____ _____    ______ ____
ROOT
ATOM      1  C   UNL     1     -20.685  -1.214   5.574  0.00  0.00    +0.000 C 
ATOM      2  C   UNL     1     -20.856  -2.394   4.959  0.00  0.00    +0.000 C 
ATOM      3  H   UNL     1     -20.901  -0.301   5.026  0.00  0.00    +0.000 HD
ATOM      4  H   UNL     1     -21.193  -2.401   3.926  0.00  0.00    +0.000 HD
ENDROOT
BRANCH   1   5
ATOM      5  C   UNL     1     -20.230  -1.072   6.998  0.00  0.00    +0.000 C 
ATOM      6  H   UNL     1     -19.436  -0.314   7.019  0.00  0.00    +0.000 HD
ATOM      7  H   UNL     1     -19.759  -1.984   7.377  0.00  0.00    +0.000 HD
BRANCH   5   8
ATOM      8  C   UNL     1     -21.377  -0.624   7.904  0.00  0.00    +0.000 C 
ATOM      9  H   UNL     1     -22.073   0.016   7.348  0.00  0.00    +0.000 HD
ATOM     10  H   UNL     1     -20.988  -0.027   8.738  0.00  0.00    +0.000 HD
BRANCH   8  11
ATOM     11  C   UNL     1     -22.143  -1.814   8.460  0.00  0.00    +0.000 C 
ATOM     12  H   UNL     1     -22.487  -2.459   7.645  0.00  0.00    +0.000 HD
ATOM     13  H   UNL     1     -21.509  -2.414   9.122  0.00  0.00    +0.000 HD
ATOM     14  H   UNL     1     -23.021  -1.486   9.026  0.00  0.00    +0.000 HD
ENDBRANCH   8  11
ENDBRANCH   5   8
ENDBRANCH   1   5
BRANCH   2  15
ATOM     15  C   UNL     1     -20.614  -3.714   5.615  0.00  0.00    +0.000 C 
ATOM     16  H   UNL     1     -19.677  -3.648   6.183  0.00  0.00    +0.000 HD
ATOM     17  H   UNL     1     -21.404  -4.020   6.304  0.00  0.00    +0.000 HD
BRANCH  15  18
ATOM     18  O   UNL     1     -20.477  -4.705   4.607  0.00  0.00    +0.000 OA
BRANCH  18  20
ATOM     19  O   UNL     1     -18.451  -5.638   5.212  0.00  0.00    +0.000 OA
ATOM     20  C   UNL     1     -19.204  -5.151   4.380  0.00  0.00    +0.000 C 
BRANCH  20  21
ATOM     21  C   UNL     1     -18.846  -4.957   2.937  0.00  0.00    +0.000 C 
ATOM     22  H   UNL     1     -17.776  -4.753   2.844  0.00  0.00    +0.000 HD
ATOM     23  H   UNL     1     -19.434  -4.136   2.517  0.00  0.00    +0.000 HD
ATOM     24  H   UNL     1     -19.077  -5.870   2.380  0.00  0.00    +0.000 HD
ENDBRANCH  20  21
ENDBRANCH  18  20
ENDBRANCH  15  18
ENDBRANCH   2  15
TORSDOF 7
ENDMDL
MODEL 2
REMARK VINA RESULT:    -4.460     28.984     29.895
REMARK INTER + INTRA:          -6.273
REMARK INTER:                  -5.863
REMARK INTRA:                  -0.411
REMARK UNBOUND:                -0.249
REMARK  Name = 5363374
REMARK  7 active torsions:
REMARK  status: ('A' for Active; 'I' for Inactive)
REMARK    1  A    between atoms: O_1  and  C_8
REMARK    2  A    between atoms: O_1  and  C_9
REMARK    3  A    between atoms: C_3  and  C_4
REMARK    4  A    between atoms: C_3  and  C_5
REMARK    5  A    between atoms: C_4  and  C_6
REMARK    6  A    between atoms: C_7  and  C_8
REMARK    7  A    between atoms: C_9  and  C_10
REMARK                            x       y       z     vdW  Elec       q    Type
REMARK                         _______ _______ _______ _____ _____    ______ ____
ROOT
ATOM      1  C   UNL     1       7.008   8.991   0.493  0.00  0.00    +0.000 C 
ATOM      2  C   UNL     1       5.910   8.485   1.074  0.00  0.00    +0.000 C 
ATOM      3  H   UNL     1       7.793   8.310   0.173  0.00  0.00    +0.000 HD
ATOM      4  H   UNL     1       5.844   7.409   1.220  0.00  0.00    +0.000 HD
ENDROOT
BRANCH   1   5
ATOM      5  C   UNL     1       7.215  10.454   0.231  0.00  0.00    +0.000 C 
ATOM      6  H   UNL     1       7.980  10.812   0.933  0.00  0.00    +0.000 HD
ATOM      7  H   UNL     1       6.325  11.048   0.459  0.00  0.00    +0.000 HD
BRANCH   5   8
ATOM      8  C   UNL     1       7.693  10.699  -1.200  0.00  0.00    +0.000 C 
ATOM      9  H   UNL     1       7.992  11.746  -1.328  0.00  0.00    +0.000 HD
ATOM     10  H   UNL     1       6.876  10.509  -1.908  0.00  0.00    +0.000 HD
BRANCH   8  11
ATOM     11  C   UNL     1       8.872   9.805  -1.553  0.00  0.00    +0.000 C 
ATOM     12  H   UNL     1       9.750  10.413  -1.795  0.00  0.00    +0.000 HD
ATOM     13  H   UNL     1       9.134   9.152  -0.714  0.00  0.00    +0.000 HD
ATOM     14  H   UNL     1       8.643   9.178  -2.421  0.00  0.00    +0.000 HD
ENDBRANCH   8  11
ENDBRANCH   5   8
ENDBRANCH   1   5
BRANCH   2  15
ATOM     15  C   UNL     1       4.758   9.316   1.535  0.00  0.00    +0.000 C 
ATOM     16  H   UNL     1       4.206   8.747   2.293  0.00  0.00    +0.000 HD
ATOM     17  H   UNL     1       5.046  10.273   1.976  0.00  0.00    +0.000 HD
BRANCH  15  18
ATOM     18  O   UNL     1       3.903   9.563   0.428  0.00  0.00    +0.000 OA
BRANCH  18  20
ATOM     19  O   UNL     1       3.288  11.687   1.097  0.00  0.00    +0.000 OA
ATOM     20  C   UNL     1       3.552  10.869   0.226  0.00  0.00    +0.000 C 
BRANCH  20  21
ATOM     21  C   UNL     1       3.536  11.172  -1.242  0.00  0.00    +0.000 C 
ATOM     22  H   UNL     1       3.325  10.261  -1.806  0.00  0.00    +0.000 HD
ATOM     23  H   UNL     1       4.497  11.599  -1.542  0.00  0.00    +0.000 HD
ATOM     24  H   UNL     1       2.749  11.903  -1.452  0.00  0.00    +0.000 HD
ENDBRANCH  20  21
ENDBRANCH  18  20
ENDBRANCH  15  18
ENDBRANCH   2  15
TORSDOF 7
ENDMDL
MODEL 3
REMARK VINA RESULT:    -4.440     28.588     29.441
REMARK INTER + INTRA:          -6.246
REMARK INTER:                  -5.702
REMARK INTRA:                  -0.544
REMARK UNBOUND:                -0.249
REMARK  Name = 5363374
REMARK  7 active torsions:
REMARK  status: ('A' for Active; 'I' for Inactive)
REMARK    1  A    between atoms: O_1  and  C_8
REMARK    2  A    between atoms: O_1  and  C_9
REMARK    3  A    between atoms: C_3  and  C_4
REMARK    4  A    between atoms: C_3  and  C_5
REMARK    5  A    between atoms: C_4  and  C_6
REMARK    6  A    between atoms: C_7  and  C_8
REMARK    7  A    between atoms: C_9  and  C_10
REMARK                            x       y       z     vdW  Elec       q    Type
REMARK                         _______ _______ _______ _____ _____    ______ ____
ROOT
ATOM      1  C   UNL     1       6.198  11.903  -0.088  0.00  0.00    +0.000 C 
ATOM      2  C   UNL     1       4.972  12.285   0.300  0.00  0.00    +0.000 C 
ATOM      3  H   UNL     1       7.057  12.478   0.247  0.00  0.00    +0.000 HD
ATOM      4  H   UNL     1       4.874  13.168   0.927  0.00  0.00    +0.000 HD
ENDROOT
BRANCH   1   5
ATOM      5  C   UNL     1       6.465  10.702  -0.947  0.00  0.00    +0.000 C 
ATOM      6  H   UNL     1       6.665  11.059  -1.966  0.00  0.00    +0.000 HD
ATOM      7  H   UNL     1       5.588  10.055  -1.044  0.00  0.00    +0.000 HD
BRANCH   5   8
ATOM      8  C   UNL     1       7.678   9.918  -0.443  0.00  0.00    +0.000 C 
ATOM      9  H   UNL     1       8.475  10.607  -0.136  0.00  0.00    +0.000 HD
ATOM     10  H   UNL     1       8.085   9.294  -1.247  0.00  0.00    +0.000 HD
BRANCH   8  11
ATOM     11  C   UNL     1       7.314   9.032   0.738  0.00  0.00    +0.000 C 
ATOM     12  H   UNL     1       6.274   9.203   1.035  0.00  0.00    +0.000 HD
ATOM     13  H   UNL     1       7.423   7.973   0.482  0.00  0.00    +0.000 HD
ATOM     14  H   UNL     1       7.953   9.246   1.601  0.00  0.00    +0.000 HD
ENDBRANCH   8  11
ENDBRANCH   5   8
ENDBRANCH   1   5
BRANCH   2  15
ATOM     15  C   UNL     1       3.720  11.563  -0.077  0.00  0.00    +0.000 C 
ATOM     16  H   UNL     1       2.991  12.302  -0.432  0.00  0.00    +0.000 HD
ATOM     17  H   UNL     1       3.855  10.819  -0.865  0.00  0.00    +0.000 HD
BRANCH  15  18
ATOM     18  O   UNL     1       3.201  10.917   1.077  0.00  0.00    +0.000 OA
BRANCH  18  20
ATOM     19  O   UNL     1       3.741   8.803   0.319  0.00  0.00    +0.000 OA
ATOM     20  C   UNL     1       3.539   9.600   1.224  0.00  0.00    +0.000 C 
BRANCH  20  21
ATOM     21  C   UNL     1       3.631   9.258   2.681  0.00  0.00    +0.000 C 
ATOM     22  H   UNL     1       4.675   9.095   2.958  0.00  0.00    +0.000 HD
ATOM     23  H   UNL     1       3.032   8.367   2.889  0.00  0.00    +0.000 HD
ATOM     24  H   UNL     1       3.238  10.088   3.274  0.00  0.00    +0.000 HD
ENDBRANCH  20  21
ENDBRANCH  18  20
ENDBRANCH  15  18
ENDBRANCH   2  15
TORSDOF 7
ENDMDL
MODEL 4
REMARK VINA RESULT:    -4.410     28.032     28.816
REMARK INTER + INTRA:          -6.207
REMARK INTER:                  -5.805
REMARK INTRA:                  -0.401
REMARK UNBOUND:                -0.249
REMARK  Name = 5363374
REMARK  7 active torsions:
REMARK  status: ('A' for Active; 'I' for Inactive)
REMARK    1  A    between atoms: O_1  and  C_8
REMARK    2  A    between atoms: O_1  and  C_9
REMARK    3  A    between atoms: C_3  and  C_4
REMARK    4  A    between atoms: C_3  and  C_5
REMARK    5  A    between atoms: C_4  and  C_6
REMARK    6  A    between atoms: C_7  and  C_8
REMARK    7  A    between atoms: C_9  and  C_10
REMARK                            x       y       z     vdW  Elec       q    Type
REMARK                         _______ _______ _______ _____ _____    ______ ____
ROOT
ATOM      1  C   UNL     1       7.209   8.634   2.297  0.00  0.00    +0.000 C 
ATOM      2  C   UNL     1       6.737   9.101   1.132  0.00  0.00    +0.000 C 
ATOM      3  H   UNL     1       8.177   8.983   2.647  0.00  0.00    +0.000 HD
ATOM      4  H   UNL     1       7.342   9.805   0.566  0.00  0.00    +0.000 HD
ENDROOT
BRANCH   1   5
ATOM      5  C   UNL     1       6.468   7.664   3.171  0.00  0.00    +0.000 C 
ATOM      6  H   UNL     1       6.919   6.674   3.025  0.00  0.00    +0.000 HD
ATOM      7  H   UNL     1       5.423   7.546   2.868  0.00  0.00    +0.000 HD
BRANCH   5   8
ATOM      8  C   UNL     1       6.577   8.054   4.646  0.00  0.00    +0.000 C 
ATOM      9  H   UNL     1       7.368   8.800   4.786  0.00  0.00    +0.000 HD
ATOM     10  H   UNL     1       6.851   7.179   5.248  0.00  0.00    +0.000 HD
BRANCH   8  11
ATOM     11  C   UNL     1       5.267   8.625   5.167  0.00  0.00    +0.000 C 
ATOM     12  H   UNL     1       4.564   7.816   5.393  0.00  0.00    +0.000 HD
ATOM     13  H   UNL     1       5.427   9.199   6.085  0.00  0.00    +0.000 HD
ATOM     14  H   UNL     1       4.802   9.282   4.425  0.00  0.00    +0.000 HD
ENDBRANCH   8  11
ENDBRANCH   5   8
ENDBRANCH   1   5
BRANCH   2  15
ATOM     15  C   UNL     1       5.413   8.712   0.559  0.00  0.00    +0.000 C 
ATOM     16  H   UNL     1       5.591   8.134  -0.356  0.00  0.00    +0.000 HD
ATOM     17  H   UNL     1       4.799   8.104   1.227  0.00  0.00    +0.000 HD
BRANCH  15  18
ATOM     18  O   UNL     1       4.695   9.893   0.229  0.00  0.00    +0.000 OA
BRANCH  18  20
ATOM     19  O   UNL     1       3.299  11.415   1.265  0.00  0.00    +0.000 OA
ATOM     20  C   UNL     1       3.743  10.283   1.131  0.00  0.00    +0.000 C 
BRANCH  20  21
ATOM     21  C   UNL     1       3.308   9.107   1.953  0.00  0.00    +0.000 C 
ATOM     22  H   UNL     1       2.388   8.686   1.540  0.00  0.00    +0.000 HD
ATOM     23  H   UNL     1       3.159   9.417   2.991  0.00  0.00    +0.000 HD
ATOM     24  H   UNL     1       4.086   8.339   1.928  0.00  0.00    +0.000 HD
ENDBRANCH  20  21
ENDBRANCH  18  20
ENDBRANCH  15  18
ENDBRANCH   2  15
TORSDOF 7
ENDMDL
MODEL 5
REMARK VINA RESULT:    -4.307     18.026     19.220
REMARK INTER + INTRA:          -6.067
REMARK INTER:                  -5.712
REMARK INTRA:                  -0.355
REMARK UNBOUND:                -0.249
REMARK  Name = 5363374
REMARK  7 active torsions:
REMARK  status: ('A' for Active; 'I' for Inactive)
REMARK    1  A    between atoms: O_1  and  C_8
REMARK    2  A    between atoms: O_1  and  C_9
REMARK    3  A    between atoms: C_3  and  C_4
REMARK    4  A    between atoms: C_3  and  C_5
REMARK    5  A    between atoms: C_4  and  C_6
REMARK    6  A    between atoms: C_7  and  C_8
REMARK    7  A    between atoms: C_9  and  C_10
REMARK                            x       y       z     vdW  Elec       q    Type
REMARK                         _______ _______ _______ _____ _____    ______ ____
ROOT
ATOM      1  C   UNL     1      -7.216  11.802   4.626  0.00  0.00    +0.000 C 
ATOM      2  C   UNL     1      -8.064  10.927   5.186  0.00  0.00    +0.000 C 
ATOM      3  H   UNL     1      -6.434  11.429   3.971  0.00  0.00    +0.000 HD
ATOM      4  H   UNL     1      -7.935   9.868   4.978  0.00  0.00    +0.000 HD
ENDROOT
BRANCH   1   5
ATOM      5  C   UNL     1      -7.293  13.288   4.830  0.00  0.00    +0.000 C 
ATOM      6  H   UNL     1      -8.190  13.495   5.426  0.00  0.00    +0.000 HD
ATOM      7  H   UNL     1      -7.447  13.829   3.891  0.00  0.00    +0.000 HD
BRANCH   5   8
ATOM      8  C   UNL     1      -6.063  13.809   5.574  0.00  0.00    +0.000 C 
ATOM      9  H   UNL     1      -5.839  14.838   5.266  0.00  0.00    +0.000 HD
ATOM     10  H   UNL     1      -5.185  13.201   5.324  0.00  0.00    +0.000 HD
BRANCH   8  11
ATOM     11  C   UNL     1      -6.273  13.783   7.080  0.00  0.00    +0.000 C 
ATOM     12  H   UNL     1      -6.917  14.613   7.388  0.00  0.00    +0.000 HD
ATOM     13  H   UNL     1      -6.751  12.849   7.393  0.00  0.00    +0.000 HD
ATOM     14  H   UNL     1      -5.320  13.878   7.611  0.00  0.00    +0.000 HD
ENDBRANCH   8  11
ENDBRANCH   5   8
ENDBRANCH   1   5
BRANCH   2  15
ATOM     15  C   UNL     1      -9.190  11.322   6.084  0.00  0.00    +0.000 C 
ATOM     16  H   UNL     1      -9.266  12.417   6.078  0.00  0.00    +0.000 HD
ATOM     17  H   UNL     1     -10.160  10.916   5.788  0.00  0.00    +0.000 HD
BRANCH  15  18
ATOM     18  O   UNL     1      -8.896  10.885   7.403  0.00  0.00    +0.000 OA
BRANCH  18  20
ATOM     19  O   UNL     1      -8.418   8.693   7.953  0.00  0.00    +0.000 OA
ATOM     20  C   UNL     1      -9.212   9.584   7.684  0.00  0.00    +0.000 C 
BRANCH  20  21
ATOM     21  C   UNL     1     -10.697   9.393   7.614  0.00  0.00    +0.000 C 
ATOM     22  H   UNL     1     -10.984   8.508   8.188  0.00  0.00    +0.000 HD
ATOM     23  H   UNL     1     -11.009   9.295   6.571  0.00  0.00    +0.000 HD
ATOM     24  H   UNL     1     -11.195  10.266   8.046  0.00  0.00    +0.000 HD
ENDBRANCH  20  21
ENDBRANCH  18  20
ENDBRANCH  15  18
ENDBRANCH   2  15
TORSDOF 7
ENDMDL
MODEL 6
REMARK VINA RESULT:    -4.212     25.527     26.988
REMARK INTER + INTRA:          -5.939
REMARK INTER:                  -5.536
REMARK INTRA:                  -0.403
REMARK UNBOUND:                -0.249
REMARK  Name = 5363374
REMARK  7 active torsions:
REMARK  status: ('A' for Active; 'I' for Inactive)
REMARK    1  A    between atoms: O_1  and  C_8
REMARK    2  A    between atoms: O_1  and  C_9
REMARK    3  A    between atoms: C_3  and  C_4
REMARK    4  A    between atoms: C_3  and  C_5
REMARK    5  A    between atoms: C_4  and  C_6
REMARK    6  A    between atoms: C_7  and  C_8
REMARK    7  A    between atoms: C_9  and  C_10
REMARK                            x       y       z     vdW  Elec       q    Type
REMARK                         _______ _______ _______ _____ _____    ______ ____
ROOT
ATOM      1  C   UNL     1      -3.767   6.934 -11.375  0.00  0.00    +0.000 C 
ATOM      2  C   UNL     1      -4.071   8.092 -11.978  0.00  0.00    +0.000 C 
ATOM      3  H   UNL     1      -4.233   6.019 -11.732  0.00  0.00    +0.000 HD
ATOM      4  H   UNL     1      -4.785   8.083 -12.798  0.00  0.00    +0.000 HD
ENDROOT
BRANCH   1   5
ATOM      5  C   UNL     1      -2.794   6.814 -10.239  0.00  0.00    +0.000 C 
ATOM      6  H   UNL     1      -2.119   7.679 -10.286  0.00  0.00    +0.000 HD
ATOM      7  H   UNL     1      -2.140   5.942 -10.340  0.00  0.00    +0.000 HD
BRANCH   5   8
ATOM      8  C   UNL     1      -3.514   6.812  -8.890  0.00  0.00    +0.000 C 
ATOM      9  H   UNL     1      -3.560   7.829  -8.481  0.00  0.00    +0.000 HD
ATOM     10  H   UNL     1      -2.961   6.200  -8.167  0.00  0.00    +0.000 HD
BRANCH   8  11
ATOM     11  C   UNL     1      -4.930   6.271  -9.018  0.00  0.00    +0.000 C 
ATOM     12  H   UNL     1      -5.243   5.801  -8.080  0.00  0.00    +0.000 HD
ATOM     13  H   UNL     1      -5.638   7.075  -9.245  0.00  0.00    +0.000 HD
ATOM     14  H   UNL     1      -4.993   5.520  -9.812  0.00  0.00    +0.000 HD
ENDBRANCH   8  11
ENDBRANCH   5   8
ENDBRANCH   1   5
BRANCH   2  15
ATOM     15  C   UNL     1      -3.479   9.408 -11.593  0.00  0.00    +0.000 C 
ATOM     16  H   UNL     1      -4.221  10.191 -11.796  0.00  0.00    +0.000 HD
ATOM     17  H   UNL     1      -3.196   9.478 -10.540  0.00  0.00    +0.000 HD
BRANCH  15  18
ATOM     18  O   UNL     1      -2.328   9.643 -12.392  0.00  0.00    +0.000 OA
BRANCH  18  20
ATOM     19  O   UNL     1      -0.860  10.254 -10.716  0.00  0.00    +0.000 OA
ATOM     20  C   UNL     1      -1.131   9.626 -11.730  0.00  0.00    +0.000 C 
BRANCH  20  21
ATOM     21  C   UNL     1      -0.173   8.713 -12.433  0.00  0.00    +0.000 C 
ATOM     22  H   UNL     1       0.080   7.870 -11.785  0.00  0.00    +0.000 HD
ATOM     23  H   UNL     1       0.727   9.267 -12.715  0.00  0.00    +0.000 HD
ATOM     24  H   UNL     1      -0.642   8.325 -13.342  0.00  0.00    +0.000 HD
ENDBRANCH  20  21
ENDBRANCH  18  20
ENDBRANCH  15  18
ENDBRANCH   2  15
TORSDOF 7
ENDMDL
MODEL 7
REMARK VINA RESULT:    -4.089      1.570      2.139
REMARK INTER + INTRA:          -5.773
REMARK INTER:                  -5.578
REMARK INTRA:                  -0.195
REMARK UNBOUND:                -0.249
REMARK  Name = 5363374
REMARK  7 active torsions:
REMARK  status: ('A' for Active; 'I' for Inactive)
REMARK    1  A    between atoms: O_1  and  C_8
REMARK    2  A    between atoms: O_1  and  C_9
REMARK    3  A    between atoms: C_3  and  C_4
REMARK    4  A    between atoms: C_3  and  C_5
REMARK    5  A    between atoms: C_4  and  C_6
REMARK    6  A    between atoms: C_7  and  C_8
REMARK    7  A    between atoms: C_9  and  C_10
REMARK                            x       y       z     vdW  Elec       q    Type
REMARK                         _______ _______ _______ _____ _____    ______ ____
ROOT
ATOM      1  C   UNL     1     -20.531  -3.174   5.922  0.00  0.00    +0.000 C 
ATOM      2  C   UNL     1     -20.195  -4.213   5.143  0.00  0.00    +0.000 C 
ATOM      3  H   UNL     1     -20.574  -3.319   6.998  0.00  0.00    +0.000 HD
ATOM      4  H   UNL     1     -19.988  -5.172   5.611  0.00  0.00    +0.000 HD
ENDROOT
BRANCH   1   5
ATOM      5  C   UNL     1     -20.833  -1.800   5.398  0.00  0.00    +0.000 C 
ATOM      6  H   UNL     1     -21.923  -1.717   5.294  0.00  0.00    +0.000 HD
ATOM      7  H   UNL     1     -20.442  -1.644   4.388  0.00  0.00    +0.000 HD
BRANCH   5   8
ATOM      8  C   UNL     1     -20.336  -0.719   6.358  0.00  0.00    +0.000 C 
ATOM      9  H   UNL     1     -20.474   0.275   5.917  0.00  0.00    +0.000 HD
ATOM     10  H   UNL     1     -19.261  -0.843   6.541  0.00  0.00    +0.000 HD
BRANCH   8  11
ATOM     11  C   UNL     1     -21.074  -0.773   7.687  0.00  0.00    +0.000 C 
ATOM     12  H   UNL     1     -20.810  -1.686   8.231  0.00  0.00    +0.000 HD
ATOM     13  H   UNL     1     -20.812   0.084   8.316  0.00  0.00    +0.000 HD
ATOM     14  H   UNL     1     -22.158  -0.771   7.534  0.00  0.00    +0.000 HD
ENDBRANCH   8  11
ENDBRANCH   5   8
ENDBRANCH   1   5
BRANCH   2  15
ATOM     15  C   UNL     1     -20.081  -4.131   3.656  0.00  0.00    +0.000 C 
ATOM     16  H   UNL     1     -20.824  -3.410   3.294  0.00  0.00    +0.000 HD
ATOM     17  H   UNL     1     -19.099  -3.809   3.302  0.00  0.00    +0.000 HD
BRANCH  15  18
ATOM     18  O   UNL     1     -20.368  -5.409   3.106  0.00  0.00    +0.000 OA
BRANCH  18  20
ATOM     19  O   UNL     1     -19.450  -7.023   1.730  0.00  0.00    +0.000 OA
ATOM     20  C   UNL     1     -19.418  -5.923   2.267  0.00  0.00    +0.000 C 
BRANCH  20  21
ATOM     21  C   UNL     1     -18.305  -4.935   2.090  0.00  0.00    +0.000 C 
ATOM     22  H   UNL     1     -17.444  -5.425   1.628  0.00  0.00    +0.000 HD
ATOM     23  H   UNL     1     -18.033  -4.507   3.058  0.00  0.00    +0.000 HD
ATOM     24  H   UNL     1     -18.640  -4.126   1.433  0.00  0.00    +0.000 HD
ENDBRANCH  20  21
ENDBRANCH  18  20
ENDBRANCH  15  18
ENDBRANCH   2  15
TORSDOF 7
ENDMDL
MODEL 8
REMARK VINA RESULT:    -4.073     26.567     28.091
REMARK INTER + INTRA:          -5.751
REMARK INTER:                  -5.302
REMARK INTRA:                  -0.449
REMARK UNBOUND:                -0.249
REMARK  Name = 5363374
REMARK  7 active torsions:
REMARK  status: ('A' for Active; 'I' for Inactive)
REMARK    1  A    between atoms: O_1  and  C_8
REMARK    2  A    between atoms: O_1  and  C_9
REMARK    3  A    between atoms: C_3  and  C_4
REMARK    4  A    between atoms: C_3  and  C_5
REMARK    5  A    between atoms: C_4  and  C_6
REMARK    6  A    between atoms: C_7  and  C_8
REMARK    7  A    between atoms: C_9  and  C_10
REMARK                            x       y       z     vdW  Elec       q    Type
REMARK                         _______ _______ _______ _____ _____    ______ ____
ROOT
ATOM      1  C   UNL     1      -2.923   6.747 -12.352  0.00  0.00    +0.000 C 
ATOM      2  C   UNL     1      -1.649   6.915 -12.737  0.00  0.00    +0.000 C 
ATOM      3  H   UNL     1      -3.534   6.012 -12.869  0.00  0.00    +0.000 HD
ATOM      4  H   UNL     1      -1.270   6.320 -13.565  0.00  0.00    +0.000 HD
ENDROOT
BRANCH   1   5
ATOM      5  C   UNL     1      -3.560   7.502 -11.222  0.00  0.00    +0.000 C 
ATOM      6  H   UNL     1      -4.640   7.542 -11.417  0.00  0.00    +0.000 HD
ATOM      7  H   UNL     1      -3.242   8.549 -11.189  0.00  0.00    +0.000 HD
BRANCH   5   8
ATOM      8  C   UNL     1      -3.316   6.806  -9.883  0.00  0.00    +0.000 C 
ATOM      9  H   UNL     1      -2.389   6.221  -9.921  0.00  0.00    +0.000 HD
ATOM     10  H   UNL     1      -4.131   6.104  -9.669  0.00  0.00    +0.000 HD
BRANCH   8  11
ATOM     11  C   UNL     1      -3.215   7.811  -8.745  0.00  0.00    +0.000 C 
ATOM     12  H   UNL     1      -2.401   7.535  -8.067  0.00  0.00    +0.000 HD
ATOM     13  H   UNL     1      -3.010   8.816  -9.127  0.00  0.00    +0.000 HD
ATOM     14  H   UNL     1      -4.144   7.843  -8.167  0.00  0.00    +0.000 HD
ENDBRANCH   8  11
ENDBRANCH   5   8
ENDBRANCH   1   5
BRANCH   2  15
ATOM     15  C   UNL     1      -0.707   7.877 -12.090  0.00  0.00    +0.000 C 
ATOM     16  H   UNL     1      -1.196   8.290 -11.200  0.00  0.00    +0.000 HD
ATOM     17  H   UNL     1       0.240   7.430 -11.777  0.00  0.00    +0.000 HD
BRANCH  15  18
ATOM     18  O   UNL     1      -0.435   8.932 -13.002  0.00  0.00    +0.000 OA
BRANCH  18  20
ATOM     19  O   UNL     1      -0.519  11.235 -13.162  0.00  0.00    +0.000 OA
ATOM     20  C   UNL     1      -0.634  10.198 -12.523  0.00  0.00    +0.000 C 
BRANCH  20  21
ATOM     21  C   UNL     1      -1.021  10.142 -11.076  0.00  0.00    +0.000 C 
ATOM     22  H   UNL     1      -0.684  11.048 -10.567  0.00  0.00    +0.000 HD
ATOM     23  H   UNL     1      -0.586   9.253 -10.612  0.00  0.00    +0.000 HD
ATOM     24  H   UNL     1      -2.110  10.080 -10.995  0.00  0.00    +0.000 HD
ENDBRANCH  20  21
ENDBRANCH  18  20
ENDBRANCH  15  18
ENDBRANCH   2  15
TORSDOF 7
ENDMDL
MODEL 9
REMARK VINA RESULT:    -4.065     27.366     28.714
REMARK INTER + INTRA:          -5.740
REMARK INTER:                  -5.456
REMARK INTRA:                  -0.284
REMARK UNBOUND:                -0.249
REMARK  Name = 5363374
REMARK  7 active torsions:
REMARK  status: ('A' for Active; 'I' for Inactive)
REMARK    1  A    between atoms: O_1  and  C_8
REMARK    2  A    between atoms: O_1  and  C_9
REMARK    3  A    between atoms: C_3  and  C_4
REMARK    4  A    between atoms: C_3  and  C_5
REMARK    5  A    between atoms: C_4  and  C_6
REMARK    6  A    between atoms: C_7  and  C_8
REMARK    7  A    between atoms: C_9  and  C_10
REMARK                            x       y       z     vdW  Elec       q    Type
REMARK                         _______ _______ _______ _____ _____    ______ ____
ROOT
ATOM      1  C   UNL     1      -1.543  10.068 -10.201  0.00  0.00    +0.000 C 
ATOM      2  C   UNL     1      -0.802   9.784 -11.282  0.00  0.00    +0.000 C 
ATOM      3  H   UNL     1      -1.137  10.740  -9.449  0.00  0.00    +0.000 HD
ATOM      4  H   UNL     1       0.188  10.225 -11.368  0.00  0.00    +0.000 HD
ENDROOT
BRANCH   1   5
ATOM      5  C   UNL     1      -2.925   9.529  -9.970  0.00  0.00    +0.000 C 
ATOM      6  H   UNL     1      -3.273   9.092 -10.914  0.00  0.00    +0.000 HD
ATOM      7  H   UNL     1      -3.647  10.319  -9.742  0.00  0.00    +0.000 HD
BRANCH   5   8
ATOM      8  C   UNL     1      -2.925   8.450  -8.886  0.00  0.00    +0.000 C 
ATOM      9  H   UNL     1      -3.721   8.643  -8.157  0.00  0.00    +0.000 HD
ATOM     10  H   UNL     1      -1.975   8.467  -8.337  0.00  0.00    +0.000 HD
BRANCH   8  11
ATOM     11  C   UNL     1      -3.129   7.066  -9.482  0.00  0.00    +0.000 C 
ATOM     12  H   UNL     1      -2.229   6.746 -10.017  0.00  0.00    +0.000 HD
ATOM     13  H   UNL     1      -3.336   6.329  -8.699  0.00  0.00    +0.000 HD
ATOM     14  H   UNL     1      -3.964   7.062 -10.189  0.00  0.00    +0.000 HD
ENDBRANCH   8  11
ENDBRANCH   5   8
ENDBRANCH   1   5
BRANCH   2  15
ATOM     15  C   UNL     1      -1.260   8.894 -12.391  0.00  0.00    +0.000 C 
ATOM     16  H   UNL     1      -1.785   8.038 -11.949  0.00  0.00    +0.000 HD
ATOM     17  H   UNL     1      -1.939   9.377 -13.098  0.00  0.00    +0.000 HD
BRANCH  15  18
ATOM     18  O   UNL     1      -0.122   8.425 -13.099  0.00  0.00    +0.000 OA
BRANCH  18  20
ATOM     19  O   UNL     1       1.014   9.720 -14.639  0.00  0.00    +0.000 OA
ATOM     20  C   UNL     1       0.086   8.984 -14.330  0.00  0.00    +0.000 C 
BRANCH  20  21
ATOM     21  C   UNL     1      -1.001   8.563 -15.272  0.00  0.00    +0.000 C 
ATOM     22  H   UNL     1      -0.911   9.113 -16.211  0.00  0.00    +0.000 HD
ATOM     23  H   UNL     1      -1.977   8.739 -14.812  0.00  0.00    +0.000 HD
ATOM     24  H   UNL     1      -0.903   7.494 -15.483  0.00  0.00    +0.000 HD
ENDBRANCH  20  21
ENDBRANCH  18  20
ENDBRANCH  15  18
ENDBRANCH   2  15
TORSDOF 7
ENDMDL
MODEL 10
REMARK VINA RESULT:    -4.029     26.772     28.171
REMARK INTER + INTRA:          -5.691
REMARK INTER:                  -5.442
REMARK INTRA:                  -0.249
REMARK UNBOUND:                -0.249
REMARK  Name = 5363374
REMARK  7 active torsions:
REMARK  status: ('A' for Active; 'I' for Inactive)
REMARK    1  A    between atoms: O_1  and  C_8
REMARK    2  A    between atoms: O_1  and  C_9
REMARK    3  A    between atoms: C_3  and  C_4
REMARK    4  A    between atoms: C_3  and  C_5
REMARK    5  A    between atoms: C_4  and  C_6
REMARK    6  A    between atoms: C_7  and  C_8
REMARK    7  A    between atoms: C_9  and  C_10
REMARK                            x       y       z     vdW  Elec       q    Type
REMARK                         _______ _______ _______ _____ _____    ______ ____
ROOT
ATOM      1  C   UNL     1      -2.478   8.762  -9.732  0.00  0.00    +0.000 C 
ATOM      2  C   UNL     1      -1.697   9.778 -10.127  0.00  0.00    +0.000 C 
ATOM      3  H   UNL     1      -3.125   8.902  -8.870  0.00  0.00    +0.000 HD
ATOM      4  H   UNL     1      -1.726  10.708  -9.565  0.00  0.00    +0.000 HD
ENDROOT
BRANCH   1   5
ATOM      5  C   UNL     1      -2.533   7.432 -10.426  0.00  0.00    +0.000 C 
ATOM      6  H   UNL     1      -1.783   6.781  -9.958  0.00  0.00    +0.000 HD
ATOM      7  H   UNL     1      -2.232   7.498 -11.476  0.00  0.00    +0.000 HD
BRANCH   5   8
ATOM      8  C   UNL     1      -3.914   6.790 -10.285  0.00  0.00    +0.000 C 
ATOM      9  H   UNL     1      -3.957   5.851 -10.851  0.00  0.00    +0.000 HD
ATOM     10  H   UNL     1      -4.682   7.452 -10.703  0.00  0.00    +0.000 HD
BRANCH   8  11
ATOM     11  C   UNL     1      -4.246   6.501  -8.830  0.00  0.00    +0.000 C 
ATOM     12  H   UNL     1      -4.751   7.361  -8.378  0.00  0.00    +0.000 HD
ATOM     13  H   UNL     1      -4.911   5.635  -8.744  0.00  0.00    +0.000 HD
ATOM     14  H   UNL     1      -3.338   6.298  -8.252  0.00  0.00    +0.000 HD
ENDBRANCH   8  11
ENDBRANCH   5   8
ENDBRANCH   1   5
BRANCH   2  15
ATOM     15  C   UNL     1      -0.785   9.712 -11.307  0.00  0.00    +0.000 C 
ATOM     16  H   UNL     1       0.079  10.360 -11.110  0.00  0.00    +0.000 HD
ATOM     17  H   UNL     1      -0.411   8.710 -11.526  0.00  0.00    +0.000 HD
BRANCH  15  18
ATOM     18  O   UNL     1      -1.477  10.200 -12.447  0.00  0.00    +0.000 OA
BRANCH  18  20
ATOM     19  O   UNL     1      -0.749  11.307 -14.340  0.00  0.00    +0.000 OA
ATOM     20  C   UNL     1      -0.728  10.346 -13.582  0.00  0.00    +0.000 C 
BRANCH  20  21
ATOM     21  C   UNL     1       0.143   9.142 -13.777  0.00  0.00    +0.000 C 
ATOM     22  H   UNL     1      -0.473   8.240 -13.807  0.00  0.00    +0.000 HD
ATOM     23  H   UNL     1       0.877   9.083 -12.969  0.00  0.00    +0.000 HD
ATOM     24  H   UNL     1       0.677   9.232 -14.728  0.00  0.00    +0.000 HD
ENDBRANCH  20  21
ENDBRANCH  18  20
ENDBRANCH  15  18
ENDBRANCH   2  15
TORSDOF 7
ENDMDL
