MODEL 1
REMARK VINA RESULT:    -5.405      0.000      0.000
REMARK INTER + INTRA:          -6.768
REMARK INTER:                  -6.576
REMARK INTRA:                  -0.192
REMARK UNBOUND:                -0.257
REMARK  Name = 8815
REMARK  4 active torsions:
REMARK  status: ('A' for Active; 'I' for Inactive)
REMARK    1  A    between atoms: O_1  and  C_6
REMARK    2  A    between atoms: O_1  and  C_10
REMARK    3  A    between atoms: C_2  and  C_3
REMARK    4  A    between atoms: C_3  and  C_9
REMARK                            x       y       z     vdW  Elec       q    Type
REMARK                         _______ _______ _______ _____ _____    ______ ____
ROOT
ATOM      1  C   UNL     1      -3.173   7.293  -9.528  0.00  0.00    +0.000 A 
ATOM      2  C   UNL     1      -2.884   8.609  -9.165  0.00  0.00    +0.000 A 
ATOM      3  C   UNL     1      -2.631   6.757 -10.696  0.00  0.00    +0.000 A 
ATOM      4  C   UNL     1      -1.511   8.851 -11.138  0.00  0.00    +0.000 A 
ATOM      5  C   UNL     1      -2.053   9.387  -9.970  0.00  0.00    +0.000 A 
ATOM      6  C   UNL     1      -1.800   7.535 -11.501  0.00  0.00    +0.000 A 
ATOM      7  H   UNL     1      -3.298   9.039  -8.257  0.00  0.00    +0.000 HD
ATOM      8  H   UNL     1      -2.847   5.732 -10.988  0.00  0.00    +0.000 HD
ATOM      9  H   UNL     1      -1.831  10.411  -9.682  0.00  0.00    +0.000 HD
ATOM     10  H   UNL     1      -1.412   7.057 -12.393  0.00  0.00    +0.000 HD
ENDROOT
BRANCH   1  11
ATOM     11  C   UNL     1      -4.061   6.460  -8.667  0.00  0.00    +0.000 C 
ATOM     12  H   UNL     1      -3.571   5.503  -8.445  0.00  0.00    +0.000 HD
ATOM     13  H   UNL     1      -4.189   6.947  -7.691  0.00  0.00    +0.000 HD
BRANCH  11  14
ATOM     14  C   UNL     1      -5.398   6.174  -9.301  0.00  0.00    +0.000 C 
ATOM     15  C   UNL     1      -6.455   5.689  -8.639  0.00  0.00    +0.000 C 
ATOM     16  H   UNL     1      -5.495   6.362 -10.367  0.00  0.00    +0.000 HD
ATOM     17  H   UNL     1      -7.387   5.499  -9.159  0.00  0.00    +0.000 HD
ATOM     18  H   UNL     1      -6.410   5.477  -7.577  0.00  0.00    +0.000 HD
ENDBRANCH  11  14
ENDBRANCH   1  11
BRANCH   4  19
ATOM     19  O   UNL     1      -0.700   9.612 -11.923  0.00  0.00    +0.000 OA
BRANCH  19  20
ATOM     20  C   UNL     1      -0.146   8.988 -13.081  0.00  0.00    +0.000 C 
ATOM     21  H   UNL     1       0.354   9.714 -13.730  0.00  0.00    +0.000 HD
ATOM     22  H   UNL     1      -0.896   8.398 -13.617  0.00  0.00    +0.000 HD
ATOM     23  H   UNL     1       0.623   8.288 -12.734  0.00  0.00    +0.000 HD
ENDBRANCH  19  20
ENDBRANCH   4  19
TORSDOF 4
ENDMDL
MODEL 2
REMARK VINA RESULT:    -5.387     14.089     15.081
REMARK INTER + INTRA:          -6.746
REMARK INTER:                  -6.466
REMARK INTRA:                  -0.279
REMARK UNBOUND:                -0.257
REMARK  Name = 8815
REMARK  4 active torsions:
REMARK  status: ('A' for Active; 'I' for Inactive)
REMARK    1  A    between atoms: O_1  and  C_6
REMARK    2  A    between atoms: O_1  and  C_10
REMARK    3  A    between atoms: C_2  and  C_3
REMARK    4  A    between atoms: C_3  and  C_9
REMARK                            x       y       z     vdW  Elec       q    Type
REMARK                         _______ _______ _______ _____ _____    ______ ____
ROOT
ATOM      1  C   UNL     1       5.329   8.209   2.382  0.00  0.00    +0.000 A 
ATOM      2  C   UNL     1       4.052   8.481   2.874  0.00  0.00    +0.000 A 
ATOM      3  C   UNL     1       5.875   9.010   1.380  0.00  0.00    +0.000 A 
ATOM      4  C   UNL     1       3.869  10.356   1.362  0.00  0.00    +0.000 A 
ATOM      5  C   UNL     1       3.323   9.555   2.364  0.00  0.00    +0.000 A 
ATOM      6  C   UNL     1       5.146  10.084   0.869  0.00  0.00    +0.000 A 
ATOM      7  H   UNL     1       3.615   7.866   3.657  0.00  0.00    +0.000 HD
ATOM      8  H   UNL     1       6.869   8.809   0.989  0.00  0.00    +0.000 HD
ATOM      9  H   UNL     1       2.329   9.762   2.752  0.00  0.00    +0.000 HD
ATOM     10  H   UNL     1       5.629  10.665   0.093  0.00  0.00    +0.000 HD
ENDROOT
BRANCH   1  11
ATOM     11  C   UNL     1       6.109   7.061   2.928  0.00  0.00    +0.000 C 
ATOM     12  H   UNL     1       5.612   6.117   2.668  0.00  0.00    +0.000 HD
ATOM     13  H   UNL     1       7.088   7.014   2.431  0.00  0.00    +0.000 HD
BRANCH  11  14
ATOM     14  C   UNL     1       6.271   7.116   4.425  0.00  0.00    +0.000 C 
ATOM     15  C   UNL     1       6.966   8.058   5.072  0.00  0.00    +0.000 C 
ATOM     16  H   UNL     1       5.802   6.326   5.007  0.00  0.00    +0.000 HD
ATOM     17  H   UNL     1       7.050   8.034   6.153  0.00  0.00    +0.000 HD
ATOM     18  H   UNL     1       7.460   8.864   4.539  0.00  0.00    +0.000 HD
ENDBRANCH  11  14
ENDBRANCH   1  11
BRANCH   4  19
ATOM     19  O   UNL     1       3.156  11.403   0.864  0.00  0.00    +0.000 OA
BRANCH  19  20
ATOM     20  C   UNL     1       3.214  11.617  -0.546  0.00  0.00    +0.000 C 
ATOM     21  H   UNL     1       4.011  11.026  -1.010  0.00  0.00    +0.000 HD
ATOM     22  H   UNL     1       3.290  12.681  -0.788  0.00  0.00    +0.000 HD
ATOM     23  H   UNL     1       2.267  11.260  -0.965  0.00  0.00    +0.000 HD
ENDBRANCH  19  20
ENDBRANCH   4  19
TORSDOF 4
ENDMDL
MODEL 3
REMARK VINA RESULT:    -5.200     13.417     14.660
REMARK INTER + INTRA:          -6.521
REMARK INTER:                  -6.286
REMARK INTRA:                  -0.235
REMARK UNBOUND:                -0.257
REMARK  Name = 8815
REMARK  4 active torsions:
REMARK  status: ('A' for Active; 'I' for Inactive)
REMARK    1  A    between atoms: O_1  and  C_6
REMARK    2  A    between atoms: O_1  and  C_10
REMARK    3  A    between atoms: C_2  and  C_3
REMARK    4  A    between atoms: C_3  and  C_9
REMARK                            x       y       z     vdW  Elec       q    Type
REMARK                         _______ _______ _______ _____ _____    ______ ____
ROOT
ATOM      1  C   UNL     1       4.780  10.025   0.780  0.00  0.00    +0.000 A 
ATOM      2  C   UNL     1       5.927   9.259   0.993  0.00  0.00    +0.000 A 
ATOM      3  C   UNL     1       3.629   9.780   1.529  0.00  0.00    +0.000 A 
ATOM      4  C   UNL     1       4.770   8.006   2.705  0.00  0.00    +0.000 A 
ATOM      5  C   UNL     1       5.921   8.250   1.956  0.00  0.00    +0.000 A 
ATOM      6  C   UNL     1       3.624   8.772   2.491  0.00  0.00    +0.000 A 
ATOM      7  H   UNL     1       6.831   9.440   0.418  0.00  0.00    +0.000 HD
ATOM      8  H   UNL     1       2.730  10.372   1.373  0.00  0.00    +0.000 HD
ATOM      9  H   UNL     1       6.818   7.657   2.118  0.00  0.00    +0.000 HD
ATOM     10  H   UNL     1       2.697   8.636   3.037  0.00  0.00    +0.000 HD
ENDROOT
BRANCH   1  11
ATOM     11  C   UNL     1       4.786  11.104  -0.249  0.00  0.00    +0.000 C 
ATOM     12  H   UNL     1       5.250  12.009   0.164  0.00  0.00    +0.000 HD
ATOM     13  H   UNL     1       5.432  10.810  -1.086  0.00  0.00    +0.000 HD
BRANCH  11  14
ATOM     14  C   UNL     1       3.406  11.459  -0.739  0.00  0.00    +0.000 C 
ATOM     15  C   UNL     1       2.934  11.145  -1.952  0.00  0.00    +0.000 C 
ATOM     16  H   UNL     1       2.765  12.020  -0.063  0.00  0.00    +0.000 HD
ATOM     17  H   UNL     1       1.932  11.439  -2.244  0.00  0.00    +0.000 HD
ATOM     18  H   UNL     1       3.534  10.595  -2.668  0.00  0.00    +0.000 HD
ENDBRANCH  11  14
ENDBRANCH   1  11
BRANCH   4  19
ATOM     19  O   UNL     1       4.766   7.021   3.644  0.00  0.00    +0.000 OA
BRANCH  19  20
ATOM     20  C   UNL     1       5.851   7.004   4.572  0.00  0.00    +0.000 C 
ATOM     21  H   UNL     1       5.862   7.904   5.195  0.00  0.00    +0.000 HD
ATOM     22  H   UNL     1       6.808   6.834   4.068  0.00  0.00    +0.000 HD
ATOM     23  H   UNL     1       5.688   6.153   5.243  0.00  0.00    +0.000 HD
ENDBRANCH  19  20
ENDBRANCH   4  19
TORSDOF 4
ENDMDL
MODEL 4
REMARK VINA RESULT:    -5.162     12.751     13.691
REMARK INTER + INTRA:          -6.475
REMARK INTER:                  -6.244
REMARK INTRA:                  -0.231
REMARK UNBOUND:                -0.257
REMARK  Name = 8815
REMARK  4 active torsions:
REMARK  status: ('A' for Active; 'I' for Inactive)
REMARK    1  A    between atoms: O_1  and  C_6
REMARK    2  A    between atoms: O_1  and  C_10
REMARK    3  A    between atoms: C_2  and  C_3
REMARK    4  A    between atoms: C_3  and  C_9
REMARK                            x       y       z     vdW  Elec       q    Type
REMARK                         _______ _______ _______ _____ _____    ______ ____
ROOT
ATOM      1  C   UNL     1       5.270  10.521   0.134  0.00  0.00    +0.000 A 
ATOM      2  C   UNL     1       6.289  11.245  -0.484  0.00  0.00    +0.000 A 
ATOM      3  C   UNL     1       5.403   9.144   0.314  0.00  0.00    +0.000 A 
ATOM      4  C   UNL     1       7.574   9.215  -0.743  0.00  0.00    +0.000 A 
ATOM      5  C   UNL     1       7.441  10.592  -0.922  0.00  0.00    +0.000 A 
ATOM      6  C   UNL     1       6.555   8.491  -0.124  0.00  0.00    +0.000 A 
ATOM      7  H   UNL     1       6.200  12.319  -0.629  0.00  0.00    +0.000 HD
ATOM      8  H   UNL     1       4.616   8.569   0.796  0.00  0.00    +0.000 HD
ATOM      9  H   UNL     1       8.232  11.162  -1.403  0.00  0.00    +0.000 HD
ATOM     10  H   UNL     1       6.593   7.421   0.047  0.00  0.00    +0.000 HD
ENDROOT
BRANCH   1  11
ATOM     11  C   UNL     1       4.038  11.218   0.603  0.00  0.00    +0.000 C 
ATOM     12  H   UNL     1       3.396  10.513   1.148  0.00  0.00    +0.000 HD
ATOM     13  H   UNL     1       4.309  11.985   1.342  0.00  0.00    +0.000 HD
BRANCH  11  14
ATOM     14  C   UNL     1       3.236  11.820  -0.522  0.00  0.00    +0.000 C 
ATOM     15  C   UNL     1       3.008  11.211  -1.692  0.00  0.00    +0.000 C 
ATOM     16  H   UNL     1       2.833  12.818  -0.370  0.00  0.00    +0.000 HD
ATOM     17  H   UNL     1       2.427  11.705  -2.463  0.00  0.00    +0.000 HD
ATOM     18  H   UNL     1       3.393  10.219  -1.899  0.00  0.00    +0.000 HD
ENDBRANCH  11  14
ENDBRANCH   1  11
BRANCH   4  19
ATOM     19  O   UNL     1       8.699   8.579  -1.171  0.00  0.00    +0.000 OA
BRANCH  19  20
ATOM     20  C   UNL     1       9.822   9.396  -1.498  0.00  0.00    +0.000 C 
ATOM     21  H   UNL     1      10.029   9.385  -2.573  0.00  0.00    +0.000 HD
ATOM     22  H   UNL     1      10.701   9.129  -0.902  0.00  0.00    +0.000 HD
ATOM     23  H   UNL     1       9.559  10.427  -1.235  0.00  0.00    +0.000 HD
ENDBRANCH  19  20
ENDBRANCH   4  19
TORSDOF 4
ENDMDL
MODEL 5
REMARK VINA RESULT:    -5.059      1.906      5.177
REMARK INTER + INTRA:          -6.351
REMARK INTER:                  -6.140
REMARK INTRA:                  -0.211
REMARK UNBOUND:                -0.257
REMARK  Name = 8815
REMARK  4 active torsions:
REMARK  status: ('A' for Active; 'I' for Inactive)
REMARK    1  A    between atoms: O_1  and  C_6
REMARK    2  A    between atoms: O_1  and  C_10
REMARK    3  A    between atoms: C_2  and  C_3
REMARK    4  A    between atoms: C_3  and  C_9
REMARK                            x       y       z     vdW  Elec       q    Type
REMARK                         _______ _______ _______ _____ _____    ______ ____
ROOT
ATOM      1  C   UNL     1      -1.788   8.862 -10.620  0.00  0.00    +0.000 A 
ATOM      2  C   UNL     1      -2.109   7.611 -11.148  0.00  0.00    +0.000 A 
ATOM      3  C   UNL     1      -2.281   9.239  -9.371  0.00  0.00    +0.000 A 
ATOM      4  C   UNL     1      -3.415   7.115  -9.177  0.00  0.00    +0.000 A 
ATOM      5  C   UNL     1      -2.922   6.738 -10.426  0.00  0.00    +0.000 A 
ATOM      6  C   UNL     1      -3.095   8.366  -8.650  0.00  0.00    +0.000 A 
ATOM      7  H   UNL     1      -1.730   7.303 -12.119  0.00  0.00    +0.000 HD
ATOM      8  H   UNL     1      -2.037  10.210  -8.949  0.00  0.00    +0.000 HD
ATOM      9  H   UNL     1      -3.168   5.764 -10.843  0.00  0.00    +0.000 HD
ATOM     10  H   UNL     1      -3.443   8.722  -7.687  0.00  0.00    +0.000 HD
ENDROOT
BRANCH   1  11
ATOM     11  C   UNL     1      -0.919   9.796 -11.392  0.00  0.00    +0.000 C 
ATOM     12  H   UNL     1      -1.509  10.657 -11.733  0.00  0.00    +0.000 HD
ATOM     13  H   UNL     1      -0.155  10.220 -10.726  0.00  0.00    +0.000 HD
BRANCH  11  14
ATOM     14  C   UNL     1      -0.280   9.151 -12.594  0.00  0.00    +0.000 C 
ATOM     15  C   UNL     1      -0.175   9.734 -13.794  0.00  0.00    +0.000 C 
ATOM     16  H   UNL     1       0.103   8.140 -12.475  0.00  0.00    +0.000 HD
ATOM     17  H   UNL     1       0.291   9.209 -14.621  0.00  0.00    +0.000 HD
ATOM     18  H   UNL     1      -0.547  10.738 -13.970  0.00  0.00    +0.000 HD
ENDBRANCH  11  14
ENDBRANCH   1  11
BRANCH   4  19
ATOM     19  O   UNL     1      -4.209   6.262  -8.474  0.00  0.00    +0.000 OA
BRANCH  19  20
ATOM     20  C   UNL     1      -5.535   6.059  -8.960  0.00  0.00    +0.000 C 
ATOM     21  H   UNL     1      -5.862   6.888  -9.597  0.00  0.00    +0.000 HD
ATOM     22  H   UNL     1      -6.237   5.862  -8.143  0.00  0.00    +0.000 HD
ATOM     23  H   UNL     1      -5.515   5.162  -9.588  0.00  0.00    +0.000 HD
ENDBRANCH  19  20
ENDBRANCH   4  19
TORSDOF 4
ENDMDL
MODEL 6
REMARK VINA RESULT:    -5.059     14.312     15.203
REMARK INTER + INTRA:          -6.351
REMARK INTER:                  -6.111
REMARK INTRA:                  -0.239
REMARK UNBOUND:                -0.257
REMARK  Name = 8815
REMARK  4 active torsions:
REMARK  status: ('A' for Active; 'I' for Inactive)
REMARK    1  A    between atoms: O_1  and  C_6
REMARK    2  A    between atoms: O_1  and  C_10
REMARK    3  A    between atoms: C_2  and  C_3
REMARK    4  A    between atoms: C_3  and  C_9
REMARK                            x       y       z     vdW  Elec       q    Type
REMARK                         _______ _______ _______ _____ _____    ______ ____
ROOT
ATOM      1  C   UNL     1       5.404   7.804   2.603  0.00  0.00    +0.000 A 
ATOM      2  C   UNL     1       6.482   7.850   1.718  0.00  0.00    +0.000 A 
ATOM      3  C   UNL     1       4.314   8.654   2.417  0.00  0.00    +0.000 A 
ATOM      4  C   UNL     1       5.378   9.594   0.463  0.00  0.00    +0.000 A 
ATOM      5  C   UNL     1       6.468   8.744   0.648  0.00  0.00    +0.000 A 
ATOM      6  C   UNL     1       4.300   9.548   1.348  0.00  0.00    +0.000 A 
ATOM      7  H   UNL     1       7.337   7.192   1.850  0.00  0.00    +0.000 HD
ATOM      8  H   UNL     1       3.467   8.627   3.099  0.00  0.00    +0.000 HD
ATOM      9  H   UNL     1       7.310   8.775  -0.038  0.00  0.00    +0.000 HD
ATOM     10  H   UNL     1       3.422  10.179   1.262  0.00  0.00    +0.000 HD
ENDROOT
BRANCH   1  11
ATOM     11  C   UNL     1       5.418   6.848   3.747  0.00  0.00    +0.000 C 
ATOM     12  H   UNL     1       4.446   6.865   4.257  0.00  0.00    +0.000 HD
ATOM     13  H   UNL     1       5.522   5.823   3.367  0.00  0.00    +0.000 HD
BRANCH  11  14
ATOM     14  C   UNL     1       6.492   7.154   4.759  0.00  0.00    +0.000 C 
ATOM     15  C   UNL     1       6.796   8.386   5.184  0.00  0.00    +0.000 C 
ATOM     16  H   UNL     1       7.061   6.315   5.152  0.00  0.00    +0.000 HD
ATOM     17  H   UNL     1       7.587   8.536   5.910  0.00  0.00    +0.000 HD
ATOM     18  H   UNL     1       6.265   9.258   4.819  0.00  0.00    +0.000 HD
ENDBRANCH  11  14
ENDBRANCH   1  11
BRANCH   4  19
ATOM     19  O   UNL     1       5.365  10.466  -0.581  0.00  0.00    +0.000 OA
BRANCH  19  20
ATOM     20  C   UNL     1       6.628  10.839  -1.131  0.00  0.00    +0.000 C 
ATOM     21  H   UNL     1       6.513  11.525  -1.978  0.00  0.00    +0.000 HD
ATOM     22  H   UNL     1       7.230   9.961  -1.386  0.00  0.00    +0.000 HD
ATOM     23  H   UNL     1       7.172  11.384  -0.351  0.00  0.00    +0.000 HD
ENDBRANCH  19  20
ENDBRANCH   4  19
TORSDOF 4
ENDMDL
MODEL 7
REMARK VINA RESULT:    -5.006     25.625     26.822
REMARK INTER + INTRA:          -6.288
REMARK INTER:                  -6.063
REMARK INTRA:                  -0.224
REMARK UNBOUND:                -0.257
REMARK  Name = 8815
REMARK  4 active torsions:
REMARK  status: ('A' for Active; 'I' for Inactive)
REMARK    1  A    between atoms: O_1  and  C_6
REMARK    2  A    between atoms: O_1  and  C_10
REMARK    3  A    between atoms: C_2  and  C_3
REMARK    4  A    between atoms: C_3  and  C_9
REMARK                            x       y       z     vdW  Elec       q    Type
REMARK                         _______ _______ _______ _____ _____    ______ ____
ROOT
ATOM      1  C   UNL     1     -20.817  -2.682   5.079  0.00  0.00    +0.000 A 
ATOM      2  C   UNL     1     -20.643  -1.298   5.035  0.00  0.00    +0.000 A 
ATOM      3  C   UNL     1     -21.229  -3.296   6.262  0.00  0.00    +0.000 A 
ATOM      4  C   UNL     1     -21.293  -1.143   7.357  0.00  0.00    +0.000 A 
ATOM      5  C   UNL     1     -20.881  -0.530   6.174  0.00  0.00    +0.000 A 
ATOM      6  C   UNL     1     -21.467  -2.527   7.401  0.00  0.00    +0.000 A 
ATOM      7  H   UNL     1     -20.325  -0.807   4.120  0.00  0.00    +0.000 HD
ATOM      8  H   UNL     1     -21.370  -4.373   6.308  0.00  0.00    +0.000 HD
ATOM      9  H   UNL     1     -20.744   0.548   6.134  0.00  0.00    +0.000 HD
ATOM     10  H   UNL     1     -21.785  -3.067   8.285  0.00  0.00    +0.000 HD
ENDROOT
BRANCH   1  11
ATOM     11  C   UNL     1     -20.563  -3.504   3.862  0.00  0.00    +0.000 C 
ATOM     12  H   UNL     1     -21.460  -3.517   3.227  0.00  0.00    +0.000 HD
ATOM     13  H   UNL     1     -19.788  -3.024   3.249  0.00  0.00    +0.000 HD
BRANCH  11  14
ATOM     14  C   UNL     1     -20.187  -4.929   4.179  0.00  0.00    +0.000 C 
ATOM     15  C   UNL     1     -18.931  -5.351   4.363  0.00  0.00    +0.000 C 
ATOM     16  H   UNL     1     -20.993  -5.655   4.246  0.00  0.00    +0.000 HD
ATOM     17  H   UNL     1     -18.729  -6.394   4.581  0.00  0.00    +0.000 HD
ATOM     18  H   UNL     1     -18.089  -4.670   4.300  0.00  0.00    +0.000 HD
ENDBRANCH  11  14
ENDBRANCH   1  11
BRANCH   4  19
ATOM     19  O   UNL     1     -21.525  -0.392   8.468  0.00  0.00    +0.000 OA
BRANCH  19  20
ATOM     20  C   UNL     1     -22.726  -0.658   9.192  0.00  0.00    +0.000 C 
ATOM     21  H   UNL     1     -23.265   0.264   9.431  0.00  0.00    +0.000 HD
ATOM     22  H   UNL     1     -22.532  -1.268  10.080  0.00  0.00    +0.000 HD
ATOM     23  H   UNL     1     -23.376  -1.247   8.535  0.00  0.00    +0.000 HD
ENDBRANCH  19  20
ENDBRANCH   4  19
TORSDOF 4
ENDMDL
MODEL 8
REMARK VINA RESULT:    -5.006      2.194      3.193
REMARK INTER + INTRA:          -6.287
REMARK INTER:                  -6.131
REMARK INTRA:                  -0.155
REMARK UNBOUND:                -0.257
REMARK  Name = 8815
REMARK  4 active torsions:
REMARK  status: ('A' for Active; 'I' for Inactive)
REMARK    1  A    between atoms: O_1  and  C_6
REMARK    2  A    between atoms: O_1  and  C_10
REMARK    3  A    between atoms: C_2  and  C_3
REMARK    4  A    between atoms: C_3  and  C_9
REMARK                            x       y       z     vdW  Elec       q    Type
REMARK                         _______ _______ _______ _____ _____    ______ ____
ROOT
ATOM      1  C   UNL     1      -3.025   6.856 -10.693  0.00  0.00    +0.000 A 
ATOM      2  C   UNL     1      -4.174   6.919 -11.482  0.00  0.00    +0.000 A 
ATOM      3  C   UNL     1      -1.767   6.819 -11.295  0.00  0.00    +0.000 A 
ATOM      4  C   UNL     1      -2.807   6.909 -13.474  0.00  0.00    +0.000 A 
ATOM      5  C   UNL     1      -4.064   6.946 -12.872  0.00  0.00    +0.000 A 
ATOM      6  C   UNL     1      -1.657   6.846 -12.685  0.00  0.00    +0.000 A 
ATOM      7  H   UNL     1      -5.160   6.950 -11.026  0.00  0.00    +0.000 HD
ATOM      8  H   UNL     1      -0.864   6.771 -10.691  0.00  0.00    +0.000 HD
ATOM      9  H   UNL     1      -4.963   6.996 -13.481  0.00  0.00    +0.000 HD
ATOM     10  H   UNL     1      -0.651   6.815 -13.087  0.00  0.00    +0.000 HD
ENDROOT
BRANCH   1  11
ATOM     11  C   UNL     1      -3.141   6.827  -9.207  0.00  0.00    +0.000 C 
ATOM     12  H   UNL     1      -4.057   6.295  -8.916  0.00  0.00    +0.000 HD
ATOM     13  H   UNL     1      -2.320   6.231  -8.786  0.00  0.00    +0.000 HD
BRANCH  11  14
ATOM     14  C   UNL     1      -3.174   8.202  -8.591  0.00  0.00    +0.000 C 
ATOM     15  C   UNL     1      -2.472   9.247  -9.045  0.00  0.00    +0.000 C 
ATOM     16  H   UNL     1      -3.799   8.340  -7.712  0.00  0.00    +0.000 HD
ATOM     17  H   UNL     1      -2.536  10.208  -8.549  0.00  0.00    +0.000 HD
ATOM     18  H   UNL     1      -1.827   9.162  -9.913  0.00  0.00    +0.000 HD
ENDBRANCH  11  14
ENDBRANCH   1  11
BRANCH   4  19
ATOM     19  O   UNL     1      -2.701   6.936 -14.830  0.00  0.00    +0.000 OA
BRANCH  19  20
ATOM     20  C   UNL     1      -1.763   7.854 -15.391  0.00  0.00    +0.000 C 
ATOM     21  H   UNL     1      -1.006   7.340 -15.992  0.00  0.00    +0.000 HD
ATOM     22  H   UNL     1      -1.320   8.495 -14.622  0.00  0.00    +0.000 HD
ATOM     23  H   UNL     1      -2.320   8.509 -16.071  0.00  0.00    +0.000 HD
ENDBRANCH  19  20
ENDBRANCH   4  19
TORSDOF 4
ENDMDL
MODEL 9
REMARK VINA RESULT:    -4.844     25.174     25.920
REMARK INTER + INTRA:          -6.092
REMARK INTER:                  -5.871
REMARK INTRA:                  -0.221
REMARK UNBOUND:                -0.257
REMARK  Name = 8815
REMARK  4 active torsions:
REMARK  status: ('A' for Active; 'I' for Inactive)
REMARK    1  A    between atoms: O_1  and  C_6
REMARK    2  A    between atoms: O_1  and  C_10
REMARK    3  A    between atoms: C_2  and  C_3
REMARK    4  A    between atoms: C_3  and  C_9
REMARK                            x       y       z     vdW  Elec       q    Type
REMARK                         _______ _______ _______ _____ _____    ______ ____
ROOT
ATOM      1  C   UNL     1     -20.782  -2.077   4.777  0.00  0.00    +0.000 A 
ATOM      2  C   UNL     1     -20.463  -3.285   5.398  0.00  0.00    +0.000 A 
ATOM      3  C   UNL     1     -21.125  -2.058   3.425  0.00  0.00    +0.000 A 
ATOM      4  C   UNL     1     -20.829  -4.453   3.315  0.00  0.00    +0.000 A 
ATOM      5  C   UNL     1     -20.486  -4.472   4.667  0.00  0.00    +0.000 A 
ATOM      6  C   UNL     1     -21.149  -3.245   2.694  0.00  0.00    +0.000 A 
ATOM      7  H   UNL     1     -20.196  -3.314   6.451  0.00  0.00    +0.000 HD
ATOM      8  H   UNL     1     -21.378  -1.123   2.930  0.00  0.00    +0.000 HD
ATOM      9  H   UNL     1     -20.236  -5.410   5.157  0.00  0.00    +0.000 HD
ATOM     10  H   UNL     1     -21.424  -3.159   1.649  0.00  0.00    +0.000 HD
ENDROOT
BRANCH   1  11
ATOM     11  C   UNL     1     -20.758  -0.807   5.558  0.00  0.00    +0.000 C 
ATOM     12  H   UNL     1     -19.999  -0.130   5.143  0.00  0.00    +0.000 HD
ATOM     13  H   UNL     1     -21.712  -0.278   5.429  0.00  0.00    +0.000 HD
BRANCH  11  14
ATOM     14  C   UNL     1     -20.457  -1.019   7.019  0.00  0.00    +0.000 C 
ATOM     15  C   UNL     1     -21.281  -0.670   8.015  0.00  0.00    +0.000 C 
ATOM     16  H   UNL     1     -19.501  -1.469   7.272  0.00  0.00    +0.000 HD
ATOM     17  H   UNL     1     -20.999  -0.844   9.047  0.00  0.00    +0.000 HD
ATOM     18  H   UNL     1     -22.244  -0.210   7.818  0.00  0.00    +0.000 HD
ENDBRANCH  11  14
ENDBRANCH   1  11
BRANCH   4  19
ATOM     19  O   UNL     1     -20.852  -5.612   2.603  0.00  0.00    +0.000 OA
BRANCH  19  20
ATOM     20  C   UNL     1     -19.592  -6.187   2.258  0.00  0.00    +0.000 C 
ATOM     21  H   UNL     1     -19.391  -7.094   2.838  0.00  0.00    +0.000 HD
ATOM     22  H   UNL     1     -18.781  -5.456   2.336  0.00  0.00    +0.000 HD
ATOM     23  H   UNL     1     -19.651  -6.488   1.206  0.00  0.00    +0.000 HD
ENDBRANCH  19  20
ENDBRANCH   4  19
TORSDOF 4
ENDMDL
MODEL 10
REMARK VINA RESULT:    -4.758      2.884      5.434
REMARK INTER + INTRA:          -5.989
REMARK INTER:                  -5.732
REMARK INTRA:                  -0.257
REMARK UNBOUND:                -0.257
REMARK  Name = 8815
REMARK  4 active torsions:
REMARK  status: ('A' for Active; 'I' for Inactive)
REMARK    1  A    between atoms: O_1  and  C_6
REMARK    2  A    between atoms: O_1  and  C_10
REMARK    3  A    between atoms: C_2  and  C_3
REMARK    4  A    between atoms: C_3  and  C_9
REMARK                            x       y       z     vdW  Elec       q    Type
REMARK                         _______ _______ _______ _____ _____    ______ ____
ROOT
ATOM      1  C   UNL     1      -3.888   6.791 -10.231  0.00  0.00    +0.000 A 
ATOM      2  C   UNL     1      -4.248   6.438  -8.930  0.00  0.00    +0.000 A 
ATOM      3  C   UNL     1      -4.829   6.722 -11.258  0.00  0.00    +0.000 A 
ATOM      4  C   UNL     1      -6.490   5.949  -9.684  0.00  0.00    +0.000 A 
ATOM      5  C   UNL     1      -5.549   6.018  -8.657  0.00  0.00    +0.000 A 
ATOM      6  C   UNL     1      -6.130   6.302 -10.985  0.00  0.00    +0.000 A 
ATOM      7  H   UNL     1      -3.524   6.489  -8.120  0.00  0.00    +0.000 HD
ATOM      8  H   UNL     1      -4.561   6.996 -12.275  0.00  0.00    +0.000 HD
ATOM      9  H   UNL     1      -5.823   5.745  -7.641  0.00  0.00    +0.000 HD
ATOM     10  H   UNL     1      -6.811   6.272 -11.828  0.00  0.00    +0.000 HD
ENDROOT
BRANCH   1  11
ATOM     11  C   UNL     1      -2.497   7.241 -10.524  0.00  0.00    +0.000 C 
ATOM     12  H   UNL     1      -1.807   6.828  -9.776  0.00  0.00    +0.000 HD
ATOM     13  H   UNL     1      -2.166   6.814 -11.481  0.00  0.00    +0.000 HD
BRANCH  11  14
ATOM     14  C   UNL     1      -2.350   8.741 -10.529  0.00  0.00    +0.000 C 
ATOM     15  C   UNL     1      -2.144   9.480  -9.432  0.00  0.00    +0.000 C 
ATOM     16  H   UNL     1      -2.434   9.248 -11.487  0.00  0.00    +0.000 HD
ATOM     17  H   UNL     1      -2.055  10.558  -9.506  0.00  0.00    +0.000 HD
ATOM     18  H   UNL     1      -2.060   9.026  -8.451  0.00  0.00    +0.000 HD
ENDBRANCH  11  14
ENDBRANCH   1  11
BRANCH   4  19
ATOM     19  O   UNL     1      -7.760   5.538  -9.416  0.00  0.00    +0.000 OA
BRANCH  19  20
ATOM     20  C   UNL     1      -8.305   5.898  -8.147  0.00  0.00    +0.000 C 
ATOM     21  H   UNL     1      -8.337   5.042  -7.465  0.00  0.00    +0.000 HD
ATOM     22  H   UNL     1      -9.280   6.384  -8.251  0.00  0.00    +0.000 HD
ATOM     23  H   UNL     1      -7.626   6.635  -7.701  0.00  0.00    +0.000 HD
ENDBRANCH  19  20
ENDBRANCH   4  19
TORSDOF 4
ENDMDL
