MODEL 1
REMARK VINA RESULT:    -4.620      0.000      0.000
REMARK INTER + INTRA:          -7.657
REMARK INTER:                  -7.280
REMARK INTRA:                  -0.377
REMARK UNBOUND:                -0.607
REMARK  Name = 7799
REMARK  10 active torsions:
REMARK  status: ('A' for Active; 'I' for Inactive)
REMARK    1  A    between atoms: O_1  and  C_10
REMARK    2  A    between atoms: O_1  and  C_11
REMARK    3  A    between atoms: C_3  and  C_4
REMARK    4  A    between atoms: C_3  and  C_5
REMARK    5  A    between atoms: C_4  and  C_6
REMARK    6  A    between atoms: C_5  and  C_7
REMARK    7  A    between atoms: C_6  and  C_8
REMARK    8  A    between atoms: C_7  and  C_9
REMARK    9  A    between atoms: C_8  and  C_10
REMARK   10  A    between atoms: C_11  and  C_12
REMARK                            x       y       z     vdW  Elec       q    Type
REMARK                         _______ _______ _______ _____ _____    ______ ____
ROOT
ATOM      1  C   UNL     1       7.118   8.597   1.961  0.00  0.00    +0.000 C 
ATOM      2  H   UNL     1       7.558   7.598   2.065  0.00  0.00    +0.000 HD
ATOM      3  H   UNL     1       7.636   9.256   2.670  0.00  0.00    +0.000 HD
ENDROOT
BRANCH   1   4
ATOM      4  C   UNL     1       7.331   9.109   0.535  0.00  0.00    +0.000 C 
ATOM      5  H   UNL     1       7.294   8.268  -0.168  0.00  0.00    +0.000 HD
ATOM      6  H   UNL     1       6.516   9.792   0.266  0.00  0.00    +0.000 HD
BRANCH   4   7
ATOM      7  C   UNL     1       8.671   9.834   0.399  0.00  0.00    +0.000 C 
ATOM      8  H   UNL     1       9.455   9.257   0.904  0.00  0.00    +0.000 HD
ATOM      9  H   UNL     1       8.613  10.808   0.899  0.00  0.00    +0.000 HD
BRANCH   7  10
ATOM     10  C   UNL     1       9.046  10.036  -1.069  0.00  0.00    +0.000 C 
ATOM     11  H   UNL     1       9.591  10.980  -1.188  0.00  0.00    +0.000 HD
ATOM     12  H   UNL     1       8.139  10.105  -1.679  0.00  0.00    +0.000 HD
BRANCH  10  13
ATOM     13  C   UNL     1       9.911   8.897  -1.584  0.00  0.00    +0.000 C 
ATOM     14  H   UNL     1      10.880   8.878  -1.073  0.00  0.00    +0.000 HD
ATOM     15  H   UNL     1      10.092   8.995  -2.659  0.00  0.00    +0.000 HD
ATOM     16  H   UNL     1       9.416   7.936  -1.409  0.00  0.00    +0.000 HD
ENDBRANCH  10  13
ENDBRANCH   7  10
ENDBRANCH   4   7
ENDBRANCH   1   4
BRANCH   1  17
ATOM     17  C   UNL     1       5.629   8.541   2.315  0.00  0.00    +0.000 C 
ATOM     18  H   UNL     1       5.332   7.500   2.497  0.00  0.00    +0.000 HD
ATOM     19  H   UNL     1       5.459   9.082   3.255  0.00  0.00    +0.000 HD
BRANCH  17  20
ATOM     20  C   UNL     1       4.744   9.133   1.218  0.00  0.00    +0.000 C 
ATOM     21  H   UNL     1       5.324   9.858   0.636  0.00  0.00    +0.000 HD
ATOM     22  H   UNL     1       4.405   8.332   0.551  0.00  0.00    +0.000 HD
BRANCH  20  24
ATOM     23  O   UNL     1       2.773   9.403   2.617  0.00  0.00    +0.000 OA
ATOM     24  C   UNL     1       3.522   9.844   1.756  0.00  0.00    +0.000 C 
BRANCH  24  25
ATOM     25  O   UNL     1       3.414  11.063   1.149  0.00  0.00    +0.000 OA
BRANCH  25  26
ATOM     26  C   UNL     1       4.227  11.246  -0.014  0.00  0.00    +0.000 C 
ATOM     27  H   UNL     1       4.818  12.161   0.094  0.00  0.00    +0.000 HD
ATOM     28  H   UNL     1       4.900  10.389  -0.128  0.00  0.00    +0.000 HD
BRANCH  26  29
ATOM     29  C   UNL     1       3.331  11.356  -1.230  0.00  0.00    +0.000 C 
ATOM     30  H   UNL     1       3.145  10.373  -1.670  0.00  0.00    +0.000 HD
ATOM     31  H   UNL     1       2.371  11.811  -0.960  0.00  0.00    +0.000 HD
ATOM     32  H   UNL     1       3.787  12.003  -1.987  0.00  0.00    +0.000 HD
ENDBRANCH  26  29
ENDBRANCH  25  26
ENDBRANCH  24  25
ENDBRANCH  20  24
ENDBRANCH  17  20
ENDBRANCH   1  17
TORSDOF 10
ENDMDL
MODEL 2
REMARK VINA RESULT:    -4.386     13.726     15.418
REMARK INTER + INTRA:          -7.300
REMARK INTER:                  -6.429
REMARK INTRA:                  -0.871
REMARK UNBOUND:                -0.607
REMARK  Name = 7799
REMARK  10 active torsions:
REMARK  status: ('A' for Active; 'I' for Inactive)
REMARK    1  A    between atoms: O_1  and  C_10
REMARK    2  A    between atoms: O_1  and  C_11
REMARK    3  A    between atoms: C_3  and  C_4
REMARK    4  A    between atoms: C_3  and  C_5
REMARK    5  A    between atoms: C_4  and  C_6
REMARK    6  A    between atoms: C_5  and  C_7
REMARK    7  A    between atoms: C_6  and  C_8
REMARK    8  A    between atoms: C_7  and  C_9
REMARK    9  A    between atoms: C_8  and  C_10
REMARK   10  A    between atoms: C_11  and  C_12
REMARK                            x       y       z     vdW  Elec       q    Type
REMARK                         _______ _______ _______ _____ _____    ______ ____
ROOT
ATOM      1  C   UNL     1      -3.012   6.821 -11.896  0.00  0.00    +0.000 C 
ATOM      2  H   UNL     1      -3.611   5.953 -12.198  0.00  0.00    +0.000 HD
ATOM      3  H   UNL     1      -3.638   7.712 -12.033  0.00  0.00    +0.000 HD
ENDROOT
BRANCH   1   4
ATOM      4  C   UNL     1      -2.620   6.690 -10.423  0.00  0.00    +0.000 C 
ATOM      5  H   UNL     1      -2.540   5.629 -10.157  0.00  0.00    +0.000 HD
ATOM      6  H   UNL     1      -1.632   7.139 -10.266  0.00  0.00    +0.000 HD
BRANCH   4   7
ATOM      7  C   UNL     1      -3.644   7.372  -9.513  0.00  0.00    +0.000 C 
ATOM      8  H   UNL     1      -4.101   6.628  -8.850  0.00  0.00    +0.000 HD
ATOM      9  H   UNL     1      -4.448   7.800 -10.124  0.00  0.00    +0.000 HD
BRANCH   7  10
ATOM     10  C   UNL     1      -2.995   8.476  -8.678  0.00  0.00    +0.000 C 
ATOM     11  H   UNL     1      -2.078   8.099  -8.210  0.00  0.00    +0.000 HD
ATOM     12  H   UNL     1      -3.671   8.778  -7.870  0.00  0.00    +0.000 HD
BRANCH  10  13
ATOM     13  C   UNL     1      -2.655   9.690  -9.528  0.00  0.00    +0.000 C 
ATOM     14  H   UNL     1      -3.378  10.497  -9.365  0.00  0.00    +0.000 HD
ATOM     15  H   UNL     1      -2.656   9.437 -10.592  0.00  0.00    +0.000 HD
ATOM     16  H   UNL     1      -1.661  10.067  -9.268  0.00  0.00    +0.000 HD
ENDBRANCH  10  13
ENDBRANCH   7  10
ENDBRANCH   4   7
ENDBRANCH   1   4
BRANCH   1  17
ATOM     17  C   UNL     1      -1.775   6.928 -12.793  0.00  0.00    +0.000 C 
ATOM     18  H   UNL     1      -1.356   5.928 -12.965  0.00  0.00    +0.000 HD
ATOM     19  H   UNL     1      -2.072   7.314 -13.777  0.00  0.00    +0.000 HD
BRANCH  17  20
ATOM     20  C   UNL     1      -0.696   7.830 -12.196  0.00  0.00    +0.000 C 
ATOM     21  H   UNL     1      -1.039   8.216 -11.229  0.00  0.00    +0.000 HD
ATOM     22  H   UNL     1       0.221   7.249 -12.040  0.00  0.00    +0.000 HD
BRANCH  20  24
ATOM     23  O   UNL     1       0.478   9.015 -13.967  0.00  0.00    +0.000 OA
ATOM     24  C   UNL     1      -0.357   9.016 -13.072  0.00  0.00    +0.000 C 
BRANCH  24  25
ATOM     25  O   UNL     1      -1.155  10.068 -12.724  0.00  0.00    +0.000 OA
BRANCH  25  26
ATOM     26  C   UNL     1      -2.107  10.474 -13.712  0.00  0.00    +0.000 C 
ATOM     27  H   UNL     1      -1.993  11.545 -13.910  0.00  0.00    +0.000 HD
ATOM     28  H   UNL     1      -1.936   9.911 -14.637  0.00  0.00    +0.000 HD
BRANCH  26  29
ATOM     29  C   UNL     1      -3.503  10.195 -13.195  0.00  0.00    +0.000 C 
ATOM     30  H   UNL     1      -3.796  10.931 -12.443  0.00  0.00    +0.000 HD
ATOM     31  H   UNL     1      -4.229  10.217 -14.015  0.00  0.00    +0.000 HD
ATOM     32  H   UNL     1      -3.556   9.195 -12.751  0.00  0.00    +0.000 HD
ENDBRANCH  26  29
ENDBRANCH  25  26
ENDBRANCH  24  25
ENDBRANCH  20  24
ENDBRANCH  17  20
ENDBRANCH   1  17
TORSDOF 10
ENDMDL
MODEL 3
REMARK VINA RESULT:    -4.359     13.376     15.436
REMARK INTER + INTRA:          -7.259
REMARK INTER:                  -6.847
REMARK INTRA:                  -0.412
REMARK UNBOUND:                -0.607
REMARK  Name = 7799
REMARK  10 active torsions:
REMARK  status: ('A' for Active; 'I' for Inactive)
REMARK    1  A    between atoms: O_1  and  C_10
REMARK    2  A    between atoms: O_1  and  C_11
REMARK    3  A    between atoms: C_3  and  C_4
REMARK    4  A    between atoms: C_3  and  C_5
REMARK    5  A    between atoms: C_4  and  C_6
REMARK    6  A    between atoms: C_5  and  C_7
REMARK    7  A    between atoms: C_6  and  C_8
REMARK    8  A    between atoms: C_7  and  C_9
REMARK    9  A    between atoms: C_8  and  C_10
REMARK   10  A    between atoms: C_11  and  C_12
REMARK                            x       y       z     vdW  Elec       q    Type
REMARK                         _______ _______ _______ _____ _____    ______ ____
ROOT
ATOM      1  C   UNL     1      -3.695   7.000 -11.468  0.00  0.00    +0.000 C 
ATOM      2  H   UNL     1      -4.421   6.181 -11.524  0.00  0.00    +0.000 HD
ATOM      3  H   UNL     1      -4.265   7.937 -11.430  0.00  0.00    +0.000 HD
ENDROOT
BRANCH   1   4
ATOM      4  C   UNL     1      -2.853   6.859 -10.199  0.00  0.00    +0.000 C 
ATOM      5  H   UNL     1      -2.444   5.843 -10.140  0.00  0.00    +0.000 HD
ATOM      6  H   UNL     1      -2.002   7.549 -10.245  0.00  0.00    +0.000 HD
BRANCH   4   7
ATOM      7  C   UNL     1      -3.683   7.153  -8.947  0.00  0.00    +0.000 C 
ATOM      8  H   UNL     1      -3.599   6.315  -8.244  0.00  0.00    +0.000 HD
ATOM      9  H   UNL     1      -4.740   7.241  -9.222  0.00  0.00    +0.000 HD
BRANCH   7  10
ATOM     10  C   UNL     1      -3.223   8.442  -8.266  0.00  0.00    +0.000 C 
ATOM     11  H   UNL     1      -2.626   8.203  -7.379  0.00  0.00    +0.000 HD
ATOM     12  H   UNL     1      -4.093   9.015  -7.928  0.00  0.00    +0.000 HD
BRANCH  10  13
ATOM     13  C   UNL     1      -2.392   9.301  -9.206  0.00  0.00    +0.000 C 
ATOM     14  H   UNL     1      -2.863  10.277  -9.364  0.00  0.00    +0.000 HD
ATOM     15  H   UNL     1      -2.272   8.816 -10.179  0.00  0.00    +0.000 HD
ATOM     16  H   UNL     1      -1.396   9.469  -8.784  0.00  0.00    +0.000 HD
ENDBRANCH  10  13
ENDBRANCH   7  10
ENDBRANCH   4   7
ENDBRANCH   1   4
BRANCH   1  17
ATOM     17  C   UNL     1      -2.814   6.993 -12.722  0.00  0.00    +0.000 C 
ATOM     18  H   UNL     1      -3.063   6.123 -13.343  0.00  0.00    +0.000 HD
ATOM     19  H   UNL     1      -3.038   7.881 -13.328  0.00  0.00    +0.000 HD
BRANCH  17  20
ATOM     20  C   UNL     1      -1.323   6.965 -12.389  0.00  0.00    +0.000 C 
ATOM     21  H   UNL     1      -1.192   6.714 -11.331  0.00  0.00    +0.000 HD
ATOM     22  H   UNL     1      -0.827   6.201 -12.999  0.00  0.00    +0.000 HD
BRANCH  20  24
ATOM     23  O   UNL     1      -0.094   8.975 -11.783  0.00  0.00    +0.000 OA
ATOM     24  C   UNL     1      -0.631   8.287 -12.640  0.00  0.00    +0.000 C 
BRANCH  24  25
ATOM     25  O   UNL     1      -0.677   8.566 -13.977  0.00  0.00    +0.000 OA
BRANCH  25  26
ATOM     26  C   UNL     1       0.336   9.456 -14.456  0.00  0.00    +0.000 C 
ATOM     27  H   UNL     1      -0.056  10.478 -14.475  0.00  0.00    +0.000 HD
ATOM     28  H   UNL     1       1.206   9.411 -13.791  0.00  0.00    +0.000 HD
BRANCH  26  29
ATOM     29  C   UNL     1       0.739   9.037 -15.854  0.00  0.00    +0.000 C 
ATOM     30  H   UNL     1       0.293   9.695 -16.604  0.00  0.00    +0.000 HD
ATOM     31  H   UNL     1       1.829   9.061 -15.964  0.00  0.00    +0.000 HD
ATOM     32  H   UNL     1       0.422   8.008 -16.054  0.00  0.00    +0.000 HD
ENDBRANCH  26  29
ENDBRANCH  25  26
ENDBRANCH  24  25
ENDBRANCH  20  24
ENDBRANCH  17  20
ENDBRANCH   1  17
TORSDOF 10
ENDMDL
MODEL 4
REMARK VINA RESULT:    -4.231     14.675     16.991
REMARK INTER + INTRA:          -7.064
REMARK INTER:                  -6.732
REMARK INTRA:                  -0.332
REMARK UNBOUND:                -0.607
REMARK  Name = 7799
REMARK  10 active torsions:
REMARK  status: ('A' for Active; 'I' for Inactive)
REMARK    1  A    between atoms: O_1  and  C_10
REMARK    2  A    between atoms: O_1  and  C_11
REMARK    3  A    between atoms: C_3  and  C_4
REMARK    4  A    between atoms: C_3  and  C_5
REMARK    5  A    between atoms: C_4  and  C_6
REMARK    6  A    between atoms: C_5  and  C_7
REMARK    7  A    between atoms: C_6  and  C_8
REMARK    8  A    between atoms: C_7  and  C_9
REMARK    9  A    between atoms: C_8  and  C_10
REMARK   10  A    between atoms: C_11  and  C_12
REMARK                            x       y       z     vdW  Elec       q    Type
REMARK                         _______ _______ _______ _____ _____    ______ ____
ROOT
ATOM      1  C   UNL     1      -9.190   9.922   7.465  0.00  0.00    +0.000 C 
ATOM      2  H   UNL     1      -9.873  10.292   8.239  0.00  0.00    +0.000 HD
ATOM      3  H   UNL     1      -9.807   9.468   6.678  0.00  0.00    +0.000 HD
ENDROOT
BRANCH   1   4
ATOM      4  C   UNL     1      -8.389  11.087   6.882  0.00  0.00    +0.000 C 
ATOM      5  H   UNL     1      -8.710  12.025   7.351  0.00  0.00    +0.000 HD
ATOM      6  H   UNL     1      -7.326  10.954   7.118  0.00  0.00    +0.000 HD
BRANCH   4   7
ATOM      7  C   UNL     1      -8.568  11.182   5.366  0.00  0.00    +0.000 C 
ATOM      8  H   UNL     1      -9.332  11.933   5.131  0.00  0.00    +0.000 HD
ATOM      9  H   UNL     1      -8.929  10.221   4.980  0.00  0.00    +0.000 HD
BRANCH   7  10
ATOM     10  C   UNL     1      -7.256  11.549   4.673  0.00  0.00    +0.000 C 
ATOM     11  H   UNL     1      -7.397  11.555   3.586  0.00  0.00    +0.000 HD
ATOM     12  H   UNL     1      -6.493  10.797   4.898  0.00  0.00    +0.000 HD
BRANCH  10  13
ATOM     13  C   UNL     1      -6.758  12.916   5.115  0.00  0.00    +0.000 C 
ATOM     14  H   UNL     1      -6.277  13.445   4.285  0.00  0.00    +0.000 HD
ATOM     15  H   UNL     1      -6.034  12.826   5.931  0.00  0.00    +0.000 HD
ATOM     16  H   UNL     1      -7.594  13.528   5.469  0.00  0.00    +0.000 HD
ENDBRANCH  10  13
ENDBRANCH   7  10
ENDBRANCH   4   7
ENDBRANCH   1   4
BRANCH   1  17
ATOM     17  C   UNL     1      -8.266   8.855   8.063  0.00  0.00    +0.000 C 
ATOM     18  H   UNL     1      -8.791   7.892   8.101  0.00  0.00    +0.000 HD
ATOM     19  H   UNL     1      -7.402   8.713   7.402  0.00  0.00    +0.000 HD
BRANCH  17  20
ATOM     20  C   UNL     1      -7.781   9.222   9.465  0.00  0.00    +0.000 C 
ATOM     21  H   UNL     1      -6.785   8.796   9.628  0.00  0.00    +0.000 HD
ATOM     22  H   UNL     1      -7.719  10.313   9.556  0.00  0.00    +0.000 HD
BRANCH  20  24
ATOM     23  O   UNL     1      -8.718   7.558  10.972  0.00  0.00    +0.000 OA
ATOM     24  C   UNL     1      -8.688   8.711  10.563  0.00  0.00    +0.000 C 
BRANCH  24  25
ATOM     25  O   UNL     1      -9.438   9.748  11.039  0.00  0.00    +0.000 OA
BRANCH  25  26
ATOM     26  C   UNL     1     -10.835   9.479  11.194  0.00  0.00    +0.000 C 
ATOM     27  H   UNL     1     -11.415  10.302  10.764  0.00  0.00    +0.000 HD
ATOM     28  H   UNL     1     -11.087   8.546  10.677  0.00  0.00    +0.000 HD
BRANCH  26  29
ATOM     29  C   UNL     1     -11.151   9.347  12.669  0.00  0.00    +0.000 C 
ATOM     30  H   UNL     1     -11.211   8.296  12.964  0.00  0.00    +0.000 HD
ATOM     31  H   UNL     1     -10.382   9.841  13.273  0.00  0.00    +0.000 HD
ATOM     32  H   UNL     1     -12.102   9.836  12.904  0.00  0.00    +0.000 HD
ENDBRANCH  26  29
ENDBRANCH  25  26
ENDBRANCH  24  25
ENDBRANCH  20  24
ENDBRANCH  17  20
ENDBRANCH   1  17
TORSDOF 10
ENDMDL
MODEL 5
REMARK VINA RESULT:    -4.223     14.005     15.418
REMARK INTER + INTRA:          -7.052
REMARK INTER:                  -6.488
REMARK INTRA:                  -0.564
REMARK UNBOUND:                -0.607
REMARK  Name = 7799
REMARK  10 active torsions:
REMARK  status: ('A' for Active; 'I' for Inactive)
REMARK    1  A    between atoms: O_1  and  C_10
REMARK    2  A    between atoms: O_1  and  C_11
REMARK    3  A    between atoms: C_3  and  C_4
REMARK    4  A    between atoms: C_3  and  C_5
REMARK    5  A    between atoms: C_4  and  C_6
REMARK    6  A    between atoms: C_5  and  C_7
REMARK    7  A    between atoms: C_6  and  C_8
REMARK    8  A    between atoms: C_7  and  C_9
REMARK    9  A    between atoms: C_8  and  C_10
REMARK   10  A    between atoms: C_11  and  C_12
REMARK                            x       y       z     vdW  Elec       q    Type
REMARK                         _______ _______ _______ _____ _____    ______ ____
ROOT
ATOM      1  C   UNL     1      -6.551  14.274   6.752  0.00  0.00    +0.000 C 
ATOM      2  H   UNL     1      -6.159  15.298   6.744  0.00  0.00    +0.000 HD
ATOM      3  H   UNL     1      -7.645  14.345   6.808  0.00  0.00    +0.000 HD
ENDROOT
BRANCH   1   4
ATOM      4  C   UNL     1      -6.148  13.556   5.463  0.00  0.00    +0.000 C 
ATOM      5  H   UNL     1      -5.599  14.248   4.812  0.00  0.00    +0.000 HD
ATOM      6  H   UNL     1      -5.470  12.728   5.701  0.00  0.00    +0.000 HD
BRANCH   4   7
ATOM      7  C   UNL     1      -7.373  13.017   4.721  0.00  0.00    +0.000 C 
ATOM      8  H   UNL     1      -7.389  13.413   3.698  0.00  0.00    +0.000 HD
ATOM      9  H   UNL     1      -8.285  13.369   5.218  0.00  0.00    +0.000 HD
BRANCH   7  10
ATOM     10  C   UNL     1      -7.370  11.489   4.681  0.00  0.00    +0.000 C 
ATOM     11  H   UNL     1      -6.345  11.116   4.782  0.00  0.00    +0.000 HD
ATOM     12  H   UNL     1      -7.750  11.141   3.714  0.00  0.00    +0.000 HD
BRANCH  10  13
ATOM     13  C   UNL     1      -8.223  10.902   5.795  0.00  0.00    +0.000 C 
ATOM     14  H   UNL     1      -9.278  11.165   5.661  0.00  0.00    +0.000 HD
ATOM     15  H   UNL     1      -7.899  11.270   6.773  0.00  0.00    +0.000 HD
ATOM     16  H   UNL     1      -8.143   9.811   5.798  0.00  0.00    +0.000 HD
ENDBRANCH  10  13
ENDBRANCH   7  10
ENDBRANCH   4   7
ENDBRANCH   1   4
BRANCH   1  17
ATOM     17  C   UNL     1      -6.027  13.534   7.987  0.00  0.00    +0.000 C 
ATOM     18  H   UNL     1      -5.286  12.784   7.681  0.00  0.00    +0.000 HD
ATOM     19  H   UNL     1      -5.500  14.243   8.639  0.00  0.00    +0.000 HD
BRANCH  17  20
ATOM     20  C   UNL     1      -7.142  12.848   8.775  0.00  0.00    +0.000 C 
ATOM     21  H   UNL     1      -7.601  13.571   9.460  0.00  0.00    +0.000 HD
ATOM     22  H   UNL     1      -7.908  12.483   8.080  0.00  0.00    +0.000 HD
BRANCH  20  24
ATOM     23  O   UNL     1      -5.724  11.706  10.388  0.00  0.00    +0.000 OA
ATOM     24  C   UNL     1      -6.657  11.675   9.597  0.00  0.00    +0.000 C 
BRANCH  24  25
ATOM     25  O   UNL     1      -7.448  10.592   9.336  0.00  0.00    +0.000 OA
BRANCH  25  26
ATOM     26  C   UNL     1      -7.084   9.385  10.014  0.00  0.00    +0.000 C 
ATOM     27  H   UNL     1      -6.439   8.784   9.365  0.00  0.00    +0.000 HD
ATOM     28  H   UNL     1      -6.546   9.631  10.936  0.00  0.00    +0.000 HD
BRANCH  26  29
ATOM     29  C   UNL     1      -8.340   8.609  10.347  0.00  0.00    +0.000 C 
ATOM     30  H   UNL     1      -9.090   9.257  10.809  0.00  0.00    +0.000 HD
ATOM     31  H   UNL     1      -8.767   8.161   9.444  0.00  0.00    +0.000 HD
ATOM     32  H   UNL     1      -8.113   7.786  11.033  0.00  0.00    +0.000 HD
ENDBRANCH  26  29
ENDBRANCH  25  26
ENDBRANCH  24  25
ENDBRANCH  20  24
ENDBRANCH  17  20
ENDBRANCH   1  17
TORSDOF 10
ENDMDL
MODEL 6
REMARK VINA RESULT:    -4.188      1.615      2.131
REMARK INTER + INTRA:          -6.998
REMARK INTER:                  -6.499
REMARK INTRA:                  -0.499
REMARK UNBOUND:                -0.607
REMARK  Name = 7799
REMARK  10 active torsions:
REMARK  status: ('A' for Active; 'I' for Inactive)
REMARK    1  A    between atoms: O_1  and  C_10
REMARK    2  A    between atoms: O_1  and  C_11
REMARK    3  A    between atoms: C_3  and  C_4
REMARK    4  A    between atoms: C_3  and  C_5
REMARK    5  A    between atoms: C_4  and  C_6
REMARK    6  A    between atoms: C_5  and  C_7
REMARK    7  A    between atoms: C_6  and  C_8
REMARK    8  A    between atoms: C_7  and  C_9
REMARK    9  A    between atoms: C_8  and  C_10
REMARK   10  A    between atoms: C_11  and  C_12
REMARK                            x       y       z     vdW  Elec       q    Type
REMARK                         _______ _______ _______ _____ _____    ______ ____
ROOT
ATOM      1  C   UNL     1       8.078   9.281   2.770  0.00  0.00    +0.000 C 
ATOM      2  H   UNL     1       9.126   8.959   2.805  0.00  0.00    +0.000 HD
ATOM      3  H   UNL     1       8.057  10.345   3.038  0.00  0.00    +0.000 HD
ENDROOT
BRANCH   1   4
ATOM      4  C   UNL     1       7.530   9.098   1.353  0.00  0.00    +0.000 C 
ATOM      5  H   UNL     1       7.433   8.028   1.132  0.00  0.00    +0.000 HD
ATOM      6  H   UNL     1       6.526   9.534   1.291  0.00  0.00    +0.000 HD
BRANCH   4   7
ATOM      7  C   UNL     1       8.440   9.758   0.315  0.00  0.00    +0.000 C 
ATOM      8  H   UNL     1       9.456   9.846   0.718  0.00  0.00    +0.000 HD
ATOM      9  H   UNL     1       8.084  10.775   0.110  0.00  0.00    +0.000 HD
BRANCH   7  10
ATOM     10  C   UNL     1       8.471   8.956  -0.986  0.00  0.00    +0.000 C 
ATOM     11  H   UNL     1       7.767   9.388  -1.707  0.00  0.00    +0.000 HD
ATOM     12  H   UNL     1       8.150   7.926  -0.795  0.00  0.00    +0.000 HD
BRANCH  10  13
ATOM     13  C   UNL     1       9.862   8.943  -1.598  0.00  0.00    +0.000 C 
ATOM     14  H   UNL     1      10.633   8.939  -0.820  0.00  0.00    +0.000 HD
ATOM     15  H   UNL     1      10.020   9.819  -2.234  0.00  0.00    +0.000 HD
ATOM     16  H   UNL     1       9.997   8.047  -2.213  0.00  0.00    +0.000 HD
ENDBRANCH  10  13
ENDBRANCH   7  10
ENDBRANCH   4   7
ENDBRANCH   1   4
BRANCH   1  17
ATOM     17  C   UNL     1       7.260   8.484   3.790  0.00  0.00    +0.000 C 
ATOM     18  H   UNL     1       7.908   7.754   4.293  0.00  0.00    +0.000 HD
ATOM     19  H   UNL     1       6.892   9.163   4.570  0.00  0.00    +0.000 HD
BRANCH  17  20
ATOM     20  C   UNL     1       6.080   7.754   3.151  0.00  0.00    +0.000 C 
ATOM     21  H   UNL     1       6.182   7.783   2.060  0.00  0.00    +0.000 HD
ATOM     22  H   UNL     1       6.076   6.708   3.479  0.00  0.00    +0.000 HD
BRANCH  20  24
ATOM     23  O   UNL     1       4.479   8.925   4.559  0.00  0.00    +0.000 OA
ATOM     24  C   UNL     1       4.740   8.361   3.505  0.00  0.00    +0.000 C 
BRANCH  24  25
ATOM     25  O   UNL     1       3.888   8.205   2.449  0.00  0.00    +0.000 OA
BRANCH  25  26
ATOM     26  C   UNL     1       3.619   9.390   1.694  0.00  0.00    +0.000 C 
ATOM     27  H   UNL     1       2.568   9.671   1.819  0.00  0.00    +0.000 HD
ATOM     28  H   UNL     1       4.259  10.205   2.051  0.00  0.00    +0.000 HD
BRANCH  26  29
ATOM     29  C   UNL     1       3.905   9.120   0.232  0.00  0.00    +0.000 C 
ATOM     30  H   UNL     1       3.880   8.048   0.020  0.00  0.00    +0.000 HD
ATOM     31  H   UNL     1       3.170   9.625  -0.404  0.00  0.00    +0.000 HD
ATOM     32  H   UNL     1       4.889   9.513  -0.047  0.00  0.00    +0.000 HD
ENDBRANCH  26  29
ENDBRANCH  25  26
ENDBRANCH  24  25
ENDBRANCH  20  24
ENDBRANCH  17  20
ENDBRANCH   1  17
TORSDOF 10
ENDMDL
MODEL 7
REMARK VINA RESULT:    -4.183     13.499     15.290
REMARK INTER + INTRA:          -6.991
REMARK INTER:                  -6.572
REMARK INTRA:                  -0.419
REMARK UNBOUND:                -0.607
REMARK  Name = 7799
REMARK  10 active torsions:
REMARK  status: ('A' for Active; 'I' for Inactive)
REMARK    1  A    between atoms: O_1  and  C_10
REMARK    2  A    between atoms: O_1  and  C_11
REMARK    3  A    between atoms: C_3  and  C_4
REMARK    4  A    between atoms: C_3  and  C_5
REMARK    5  A    between atoms: C_4  and  C_6
REMARK    6  A    between atoms: C_5  and  C_7
REMARK    7  A    between atoms: C_6  and  C_8
REMARK    8  A    between atoms: C_7  and  C_9
REMARK    9  A    between atoms: C_8  and  C_10
REMARK   10  A    between atoms: C_11  and  C_12
REMARK                            x       y       z     vdW  Elec       q    Type
REMARK                         _______ _______ _______ _____ _____    ______ ____
ROOT
ATOM      1  C   UNL     1      -4.239   6.723 -10.281  0.00  0.00    +0.000 C 
ATOM      2  H   UNL     1      -4.253   5.907 -11.013  0.00  0.00    +0.000 HD
ATOM      3  H   UNL     1      -4.748   7.580 -10.739  0.00  0.00    +0.000 HD
ENDROOT
BRANCH   1   4
ATOM      4  C   UNL     1      -4.990   6.296  -9.018  0.00  0.00    +0.000 C 
ATOM      5  H   UNL     1      -4.450   5.475  -8.529  0.00  0.00    +0.000 HD
ATOM      6  H   UNL     1      -5.019   7.132  -8.309  0.00  0.00    +0.000 HD
BRANCH   4   7
ATOM      7  C   UNL     1      -6.417   5.850  -9.344  0.00  0.00    +0.000 C 
ATOM      8  H   UNL     1      -6.413   5.238 -10.253  0.00  0.00    +0.000 HD
ATOM      9  H   UNL     1      -7.037   6.731  -9.548  0.00  0.00    +0.000 HD
BRANCH   7  10
ATOM     10  C   UNL     1      -7.026   5.053  -8.190  0.00  0.00    +0.000 C 
ATOM     11  H   UNL     1      -6.239   4.511  -7.654  0.00  0.00    +0.000 HD
ATOM     12  H   UNL     1      -7.726   4.307  -8.582  0.00  0.00    +0.000 HD
BRANCH  10  13
ATOM     13  C   UNL     1      -7.756   5.960  -7.212  0.00  0.00    +0.000 C 
ATOM     14  H   UNL     1      -7.435   5.766  -6.183  0.00  0.00    +0.000 HD
ATOM     15  H   UNL     1      -8.838   5.809  -7.269  0.00  0.00    +0.000 HD
ATOM     16  H   UNL     1      -7.546   7.010  -7.440  0.00  0.00    +0.000 HD
ENDBRANCH  10  13
ENDBRANCH   7  10
ENDBRANCH   4   7
ENDBRANCH   1   4
BRANCH   1  17
ATOM     17  C   UNL     1      -2.789   7.104  -9.963  0.00  0.00    +0.000 C 
ATOM     18  H   UNL     1      -2.335   6.331  -9.330  0.00  0.00    +0.000 HD
ATOM     19  H   UNL     1      -2.208   7.125 -10.895  0.00  0.00    +0.000 HD
BRANCH  17  20
ATOM     20  C   UNL     1      -2.681   8.457  -9.263  0.00  0.00    +0.000 C 
ATOM     21  H   UNL     1      -3.580   8.629  -8.661  0.00  0.00    +0.000 HD
ATOM     22  H   UNL     1      -1.806   8.457  -8.602  0.00  0.00    +0.000 HD
BRANCH  20  24
ATOM     23  O   UNL     1      -3.469  10.188 -10.780  0.00  0.00    +0.000 OA
ATOM     24  C   UNL     1      -2.540   9.617 -10.225  0.00  0.00    +0.000 C 
BRANCH  24  25
ATOM     25  O   UNL     1      -1.218   9.938 -10.344  0.00  0.00    +0.000 OA
BRANCH  25  26
ATOM     26  C   UNL     1      -0.752  10.145 -11.681  0.00  0.00    +0.000 C 
ATOM     27  H   UNL     1      -1.552  10.591 -12.281  0.00  0.00    +0.000 HD
ATOM     28  H   UNL     1       0.112  10.820 -11.667  0.00  0.00    +0.000 HD
BRANCH  26  29
ATOM     29  C   UNL     1      -0.349   8.812 -12.275  0.00  0.00    +0.000 C 
ATOM     30  H   UNL     1      -0.223   8.058 -11.495  0.00  0.00    +0.000 HD
ATOM     31  H   UNL     1      -1.105   8.464 -12.987  0.00  0.00    +0.000 HD
ATOM     32  H   UNL     1       0.591   8.907 -12.831  0.00  0.00    +0.000 HD
ENDBRANCH  26  29
ENDBRANCH  25  26
ENDBRANCH  24  25
ENDBRANCH  20  24
ENDBRANCH  17  20
ENDBRANCH   1  17
TORSDOF 10
ENDMDL
MODEL 8
REMARK VINA RESULT:    -4.059     13.863     15.547
REMARK INTER + INTRA:          -6.801
REMARK INTER:                  -6.392
REMARK INTRA:                  -0.408
REMARK UNBOUND:                -0.607
REMARK  Name = 7799
REMARK  10 active torsions:
REMARK  status: ('A' for Active; 'I' for Inactive)
REMARK    1  A    between atoms: O_1  and  C_10
REMARK    2  A    between atoms: O_1  and  C_11
REMARK    3  A    between atoms: C_3  and  C_4
REMARK    4  A    between atoms: C_3  and  C_5
REMARK    5  A    between atoms: C_4  and  C_6
REMARK    6  A    between atoms: C_5  and  C_7
REMARK    7  A    between atoms: C_6  and  C_8
REMARK    8  A    between atoms: C_7  and  C_9
REMARK    9  A    between atoms: C_8  and  C_10
REMARK   10  A    between atoms: C_11  and  C_12
REMARK                            x       y       z     vdW  Elec       q    Type
REMARK                         _______ _______ _______ _____ _____    ______ ____
ROOT
ATOM      1  C   UNL     1      -2.555   9.767 -11.632  0.00  0.00    +0.000 C 
ATOM      2  H   UNL     1      -2.902   8.788 -11.982  0.00  0.00    +0.000 HD
ATOM      3  H   UNL     1      -2.986  10.523 -12.302  0.00  0.00    +0.000 HD
ENDROOT
BRANCH   1   4
ATOM      4  C   UNL     1      -3.043  10.009 -10.203  0.00  0.00    +0.000 C 
ATOM      5  H   UNL     1      -2.908  11.066  -9.942  0.00  0.00    +0.000 HD
ATOM      6  H   UNL     1      -4.117   9.796 -10.143  0.00  0.00    +0.000 HD
BRANCH   4   7
ATOM      7  C   UNL     1      -2.290   9.131  -9.202  0.00  0.00    +0.000 C 
ATOM      8  H   UNL     1      -1.936   9.746  -8.365  0.00  0.00    +0.000 HD
ATOM      9  H   UNL     1      -1.404   8.703  -9.686  0.00  0.00    +0.000 HD
BRANCH   7  10
ATOM     10  C   UNL     1      -3.178   8.005  -8.673  0.00  0.00    +0.000 C 
ATOM     11  H   UNL     1      -4.206   8.365  -8.556  0.00  0.00    +0.000 HD
ATOM     12  H   UNL     1      -2.829   7.689  -7.684  0.00  0.00    +0.000 HD
BRANCH  10  13
ATOM     13  C   UNL     1      -3.176   6.808  -9.611  0.00  0.00    +0.000 C 
ATOM     14  H   UNL     1      -2.460   6.049  -9.276  0.00  0.00    +0.000 HD
ATOM     15  H   UNL     1      -2.908   7.107 -10.629  0.00  0.00    +0.000 HD
ATOM     16  H   UNL     1      -4.168   6.348  -9.641  0.00  0.00    +0.000 HD
ENDBRANCH  10  13
ENDBRANCH   7  10
ENDBRANCH   4   7
ENDBRANCH   1   4
BRANCH   1  17
ATOM     17  C   UNL     1      -1.026   9.829 -11.715  0.00  0.00    +0.000 C 
ATOM     18  H   UNL     1      -0.636  10.438 -10.889  0.00  0.00    +0.000 HD
ATOM     19  H   UNL     1      -0.614   8.821 -11.579  0.00  0.00    +0.000 HD
BRANCH  17  20
ATOM     20  C   UNL     1      -0.535  10.406 -13.042  0.00  0.00    +0.000 C 
ATOM     21  H   UNL     1      -1.360  10.931 -13.537  0.00  0.00    +0.000 HD
ATOM     22  H   UNL     1       0.276  11.118 -12.853  0.00  0.00    +0.000 HD
BRANCH  20  24
ATOM     23  O   UNL     1      -0.511   8.241 -14.152  0.00  0.00    +0.000 OA
ATOM     24  C   UNL     1      -0.020   9.351 -13.997  0.00  0.00    +0.000 C 
BRANCH  24  25
ATOM     25  O   UNL     1       1.056   9.852 -14.673  0.00  0.00    +0.000 OA
BRANCH  25  26
ATOM     26  C   UNL     1       0.832  11.089 -15.358  0.00  0.00    +0.000 C 
ATOM     27  H   UNL     1       0.611  10.887 -16.411  0.00  0.00    +0.000 HD
ATOM     28  H   UNL     1      -0.017  11.611 -14.901  0.00  0.00    +0.000 HD
BRANCH  26  29
ATOM     29  C   UNL     1       2.076  11.944 -15.250  0.00  0.00    +0.000 C 
ATOM     30  H   UNL     1       1.817  12.998 -15.121  0.00  0.00    +0.000 HD
ATOM     31  H   UNL     1       2.691  11.624 -14.402  0.00  0.00    +0.000 HD
ATOM     32  H   UNL     1       2.694  11.840 -16.148  0.00  0.00    +0.000 HD
ENDBRANCH  26  29
ENDBRANCH  25  26
ENDBRANCH  24  25
ENDBRANCH  20  24
ENDBRANCH  17  20
ENDBRANCH   1  17
TORSDOF 10
ENDMDL
MODEL 9
REMARK VINA RESULT:    -4.030     17.209     18.590
REMARK INTER + INTRA:          -6.756
REMARK INTER:                  -6.464
REMARK INTRA:                  -0.293
REMARK UNBOUND:                -0.607
REMARK  Name = 7799
REMARK  10 active torsions:
REMARK  status: ('A' for Active; 'I' for Inactive)
REMARK    1  A    between atoms: O_1  and  C_10
REMARK    2  A    between atoms: O_1  and  C_11
REMARK    3  A    between atoms: C_3  and  C_4
REMARK    4  A    between atoms: C_3  and  C_5
REMARK    5  A    between atoms: C_4  and  C_6
REMARK    6  A    between atoms: C_5  and  C_7
REMARK    7  A    between atoms: C_6  and  C_8
REMARK    8  A    between atoms: C_7  and  C_9
REMARK    9  A    between atoms: C_8  and  C_10
REMARK   10  A    between atoms: C_11  and  C_12
REMARK                            x       y       z     vdW  Elec       q    Type
REMARK                         _______ _______ _______ _____ _____    ______ ____
ROOT
ATOM      1  C   UNL     1       0.234   0.513 -12.706  0.00  0.00    +0.000 C 
ATOM      2  H   UNL     1       0.019   0.653 -13.772  0.00  0.00    +0.000 HD
ATOM      3  H   UNL     1      -0.114   1.414 -12.184  0.00  0.00    +0.000 HD
ENDROOT
BRANCH   1   4
ATOM      4  C   UNL     1      -0.523  -0.708 -12.182  0.00  0.00    +0.000 C 
ATOM      5  H   UNL     1      -1.215  -1.071 -12.953  0.00  0.00    +0.000 HD
ATOM      6  H   UNL     1       0.187  -1.519 -11.978  0.00  0.00    +0.000 HD
BRANCH   4   7
ATOM      7  C   UNL     1      -1.301  -0.376 -10.908  0.00  0.00    +0.000 C 
ATOM      8  H   UNL     1      -0.987   0.603 -10.528  0.00  0.00    +0.000 HD
ATOM      9  H   UNL     1      -1.065  -1.115 -10.132  0.00  0.00    +0.000 HD
BRANCH   7  10
ATOM     10  C   UNL     1      -2.809  -0.369 -11.163  0.00  0.00    +0.000 C 
ATOM     11  H   UNL     1      -3.069  -1.154 -11.882  0.00  0.00    +0.000 HD
ATOM     12  H   UNL     1      -3.106   0.588 -11.606  0.00  0.00    +0.000 HD
BRANCH  10  13
ATOM     13  C   UNL     1      -3.592  -0.593  -9.879  0.00  0.00    +0.000 C 
ATOM     14  H   UNL     1      -3.749  -1.662  -9.698  0.00  0.00    +0.000 HD
ATOM     15  H   UNL     1      -4.570  -0.105  -9.925  0.00  0.00    +0.000 HD
ATOM     16  H   UNL     1      -3.045  -0.181  -9.026  0.00  0.00    +0.000 HD
ENDBRANCH  10  13
ENDBRANCH   7  10
ENDBRANCH   4   7
ENDBRANCH   1   4
BRANCH   1  17
ATOM     17  C   UNL     1       1.744   0.361 -12.502  0.00  0.00    +0.000 C 
ATOM     18  H   UNL     1       2.211   1.353 -12.441  0.00  0.00    +0.000 HD
ATOM     19  H   UNL     1       1.933  -0.131 -11.539  0.00  0.00    +0.000 HD
BRANCH  17  20
ATOM     20  C   UNL     1       2.407  -0.439 -13.622  0.00  0.00    +0.000 C 
ATOM     21  H   UNL     1       3.080  -1.187 -13.186  0.00  0.00    +0.000 HD
ATOM     22  H   UNL     1       1.637  -0.955 -14.207  0.00  0.00    +0.000 HD
BRANCH  20  24
ATOM     23  O   UNL     1       2.753   1.204 -15.382  0.00  0.00    +0.000 OA
ATOM     24  C   UNL     1       3.219   0.418 -14.568  0.00  0.00    +0.000 C 
BRANCH  24  25
ATOM     25  O   UNL     1       4.547   0.194 -14.341  0.00  0.00    +0.000 OA
BRANCH  25  26
ATOM     26  C   UNL     1       5.036  -1.087 -14.751  0.00  0.00    +0.000 C 
ATOM     27  H   UNL     1       5.869  -1.383 -14.104  0.00  0.00    +0.000 HD
ATOM     28  H   UNL     1       4.232  -1.827 -14.670  0.00  0.00    +0.000 HD
BRANCH  26  29
ATOM     29  C   UNL     1       5.508  -0.999 -16.187  0.00  0.00    +0.000 C 
ATOM     30  H   UNL     1       6.308  -1.718 -16.380  0.00  0.00    +0.000 HD
ATOM     31  H   UNL     1       4.680  -1.195 -16.877  0.00  0.00    +0.000 HD
ATOM     32  H   UNL     1       5.876   0.008 -16.409  0.00  0.00    +0.000 HD
ENDBRANCH  26  29
ENDBRANCH  25  26
ENDBRANCH  24  25
ENDBRANCH  20  24
ENDBRANCH  17  20
ENDBRANCH   1  17
TORSDOF 10
ENDMDL
MODEL 10
REMARK VINA RESULT:    -4.010     13.702     15.923
REMARK INTER + INTRA:          -6.727
REMARK INTER:                  -6.120
REMARK INTRA:                  -0.607
REMARK UNBOUND:                -0.607
REMARK  Name = 7799
REMARK  10 active torsions:
REMARK  status: ('A' for Active; 'I' for Inactive)
REMARK    1  A    between atoms: O_1  and  C_10
REMARK    2  A    between atoms: O_1  and  C_11
REMARK    3  A    between atoms: C_3  and  C_4
REMARK    4  A    between atoms: C_3  and  C_5
REMARK    5  A    between atoms: C_4  and  C_6
REMARK    6  A    between atoms: C_5  and  C_7
REMARK    7  A    between atoms: C_6  and  C_8
REMARK    8  A    between atoms: C_7  and  C_9
REMARK    9  A    between atoms: C_8  and  C_10
REMARK   10  A    between atoms: C_11  and  C_12
REMARK                            x       y       z     vdW  Elec       q    Type
REMARK                         _______ _______ _______ _____ _____    ______ ____
ROOT
ATOM      1  C   UNL     1      -3.773   6.951 -10.124  0.00  0.00    +0.000 C 
ATOM      2  H   UNL     1      -3.795   7.974  -9.731  0.00  0.00    +0.000 HD
ATOM      3  H   UNL     1      -3.868   6.272  -9.268  0.00  0.00    +0.000 HD
ENDROOT
BRANCH   1   4
ATOM      4  C   UNL     1      -4.949   6.740 -11.080  0.00  0.00    +0.000 C 
ATOM      5  H   UNL     1      -5.241   7.701 -11.521  0.00  0.00    +0.000 HD
ATOM      6  H   UNL     1      -4.638   6.086 -11.904  0.00  0.00    +0.000 HD
BRANCH   4   7
ATOM      7  C   UNL     1      -6.147   6.119 -10.359  0.00  0.00    +0.000 C 
ATOM      8  H   UNL     1      -6.408   5.165 -10.831  0.00  0.00    +0.000 HD
ATOM      9  H   UNL     1      -7.016   6.779 -10.460  0.00  0.00    +0.000 HD
BRANCH   7  10
ATOM     10  C   UNL     1      -5.847   5.894  -8.876  0.00  0.00    +0.000 C 
ATOM     11  H   UNL     1      -5.993   6.827  -8.321  0.00  0.00    +0.000 HD
ATOM     12  H   UNL     1      -4.799   5.601  -8.749  0.00  0.00    +0.000 HD
BRANCH  10  13
ATOM     13  C   UNL     1      -6.744   4.819  -8.284  0.00  0.00    +0.000 C 
ATOM     14  H   UNL     1      -7.616   5.264  -7.792  0.00  0.00    +0.000 HD
ATOM     15  H   UNL     1      -6.204   4.218  -7.548  0.00  0.00    +0.000 HD
ATOM     16  H   UNL     1      -7.104   4.150  -9.072  0.00  0.00    +0.000 HD
ENDBRANCH  10  13
ENDBRANCH   7  10
ENDBRANCH   4   7
ENDBRANCH   1   4
BRANCH   1  17
ATOM     17  C   UNL     1      -2.434   6.699 -10.826  0.00  0.00    +0.000 C 
ATOM     18  H   UNL     1      -1.676   7.388 -10.432  0.00  0.00    +0.000 HD
ATOM     19  H   UNL     1      -2.086   5.685 -10.588  0.00  0.00    +0.000 HD
BRANCH  17  20
ATOM     20  C   UNL     1      -2.529   6.864 -12.342  0.00  0.00    +0.000 C 
ATOM     21  H   UNL     1      -1.930   6.086 -12.830  0.00  0.00    +0.000 HD
ATOM     22  H   UNL     1      -3.573   6.756 -12.656  0.00  0.00    +0.000 HD
BRANCH  20  24
ATOM     23  O   UNL     1      -2.564   8.887 -13.691  0.00  0.00    +0.000 OA
ATOM     24  C   UNL     1      -2.028   8.206 -12.828  0.00  0.00    +0.000 C 
BRANCH  24  25
ATOM     25  O   UNL     1      -0.906   8.543 -12.125  0.00  0.00    +0.000 OA
BRANCH  25  26
ATOM     26  C   UNL     1      -0.793   9.925 -11.770  0.00  0.00    +0.000 C 
ATOM     27  H   UNL     1       0.252  10.240 -11.859  0.00  0.00    +0.000 HD
ATOM     28  H   UNL     1      -1.414  10.527 -12.443  0.00  0.00    +0.000 HD
BRANCH  26  29
ATOM     29  C   UNL     1      -1.262  10.107 -10.342  0.00  0.00    +0.000 C 
ATOM     30  H   UNL     1      -2.346  10.237 -10.300  0.00  0.00    +0.000 HD
ATOM     31  H   UNL     1      -0.985   9.240  -9.732  0.00  0.00    +0.000 HD
ATOM     32  H   UNL     1      -0.782  10.980  -9.888  0.00  0.00    +0.000 HD
ENDBRANCH  26  29
ENDBRANCH  25  26
ENDBRANCH  24  25
ENDBRANCH  20  24
ENDBRANCH  17  20
ENDBRANCH   1  17
TORSDOF 10
ENDMDL
