MODEL 1
REMARK VINA RESULT:    -4.619      0.000      0.000
REMARK INTER + INTRA:          -8.724
REMARK INTER:                  -7.841
REMARK INTRA:                  -0.883
REMARK UNBOUND:                -1.135
REMARK  Name = 8048
REMARK  12 active torsions:
REMARK  status: ('A' for Active; 'I' for Inactive)
REMARK    1  A    between atoms: O_1  and  C_12
REMARK    2  A    between atoms: O_1  and  C_13
REMARK    3  A    between atoms: C_3  and  C_4
REMARK    4  A    between atoms: C_3  and  C_5
REMARK    5  A    between atoms: C_4  and  C_6
REMARK    6  A    between atoms: C_5  and  C_7
REMARK    7  A    between atoms: C_6  and  C_8
REMARK    8  A    between atoms: C_7  and  C_9
REMARK    9  A    between atoms: C_8  and  C_10
REMARK   10  A    between atoms: C_9  and  C_11
REMARK   11  A    between atoms: C_10  and  C_12
REMARK   12  A    between atoms: C_13  and  C_14
REMARK                            x       y       z     vdW  Elec       q    Type
REMARK                         _______ _______ _______ _____ _____    ______ ____
ROOT
ATOM      1  C   UNL     1       3.621   9.222   1.012  0.00  0.00    +0.000 C 
ATOM      2  H   UNL     1       2.695   8.836   0.569  0.00  0.00    +0.000 HD
ATOM      3  H   UNL     1       4.450   8.867   0.388  0.00  0.00    +0.000 HD
ENDROOT
BRANCH   1   4
ATOM      4  C   UNL     1       3.777   8.674   2.433  0.00  0.00    +0.000 C 
ATOM      5  H   UNL     1       3.601   9.476   3.159  0.00  0.00    +0.000 HD
ATOM      6  H   UNL     1       3.021   7.901   2.614  0.00  0.00    +0.000 HD
BRANCH   4   7
ATOM      7  C   UNL     1       5.171   8.083   2.648  0.00  0.00    +0.000 C 
ATOM      8  H   UNL     1       5.830   8.852   3.070  0.00  0.00    +0.000 HD
ATOM      9  H   UNL     1       5.598   7.799   1.677  0.00  0.00    +0.000 HD
BRANCH   7  10
ATOM     10  C   UNL     1       5.178   6.858   3.567  0.00  0.00    +0.000 C 
ATOM     11  H   UNL     1       5.874   6.110   3.166  0.00  0.00    +0.000 HD
ATOM     12  H   UNL     1       4.180   6.400   3.554  0.00  0.00    +0.000 HD
BRANCH  10  13
ATOM     13  C   UNL     1       5.566   7.182   5.010  0.00  0.00    +0.000 C 
ATOM     14  H   UNL     1       5.604   6.260   5.600  0.00  0.00    +0.000 HD
ATOM     15  H   UNL     1       4.803   7.827   5.463  0.00  0.00    +0.000 HD
BRANCH  13  16
ATOM     16  C   UNL     1       6.918   7.875   5.078  0.00  0.00    +0.000 C 
ATOM     17  H   UNL     1       7.718   7.154   5.279  0.00  0.00    +0.000 HD
ATOM     18  H   UNL     1       6.923   8.619   5.880  0.00  0.00    +0.000 HD
ATOM     19  H   UNL     1       7.144   8.388   4.138  0.00  0.00    +0.000 HD
ENDBRANCH  13  16
ENDBRANCH  10  13
ENDBRANCH   7  10
ENDBRANCH   4   7
ENDBRANCH   1   4
BRANCH   1  20
ATOM     20  C   UNL     1       3.591  10.751   1.005  0.00  0.00    +0.000 C 
ATOM     21  H   UNL     1       2.550  11.099   1.018  0.00  0.00    +0.000 HD
ATOM     22  H   UNL     1       4.069  11.131   1.916  0.00  0.00    +0.000 HD
BRANCH  20  23
ATOM     23  C   UNL     1       4.302  11.316  -0.224  0.00  0.00    +0.000 C 
ATOM     24  H   UNL     1       3.672  12.081  -0.696  0.00  0.00    +0.000 HD
ATOM     25  H   UNL     1       4.439  10.518  -0.965  0.00  0.00    +0.000 HD
BRANCH  23  26
ATOM     26  C   UNL     1       5.655  11.916   0.144  0.00  0.00    +0.000 C 
ATOM     27  H   UNL     1       5.734  12.931  -0.258  0.00  0.00    +0.000 HD
ATOM     28  H   UNL     1       5.768  11.948   1.234  0.00  0.00    +0.000 HD
BRANCH  26  30
ATOM     29  O   UNL     1       7.299  11.297  -1.510  0.00  0.00    +0.000 OA
ATOM     30  C   UNL     1       6.778  11.085  -0.423  0.00  0.00    +0.000 C 
BRANCH  30  31
ATOM     31  O   UNL     1       7.121  10.102   0.458  0.00  0.00    +0.000 OA
BRANCH  31  32
ATOM     32  C   UNL     1       7.820   8.989  -0.104  0.00  0.00    +0.000 C 
ATOM     33  H   UNL     1       8.501   8.569   0.646  0.00  0.00    +0.000 HD
ATOM     34  H   UNL     1       8.397   9.320  -0.974  0.00  0.00    +0.000 HD
BRANCH  32  35
ATOM     35  C   UNL     1       6.816   7.937  -0.527  0.00  0.00    +0.000 C 
ATOM     36  H   UNL     1       6.881   7.059   0.125  0.00  0.00    +0.000 HD
ATOM     37  H   UNL     1       5.795   8.323  -0.439  0.00  0.00    +0.000 HD
ATOM     38  H   UNL     1       6.988   7.624  -1.559  0.00  0.00    +0.000 HD
ENDBRANCH  32  35
ENDBRANCH  31  32
ENDBRANCH  30  31
ENDBRANCH  26  30
ENDBRANCH  23  26
ENDBRANCH  20  23
ENDBRANCH   1  20
TORSDOF 12
ENDMDL
MODEL 2
REMARK VINA RESULT:    -4.560     13.777     15.511
REMARK INTER + INTRA:          -8.627
REMARK INTER:                  -7.788
REMARK INTRA:                  -0.838
REMARK UNBOUND:                -1.135
REMARK  Name = 8048
REMARK  12 active torsions:
REMARK  status: ('A' for Active; 'I' for Inactive)
REMARK    1  A    between atoms: O_1  and  C_12
REMARK    2  A    between atoms: O_1  and  C_13
REMARK    3  A    between atoms: C_3  and  C_4
REMARK    4  A    between atoms: C_3  and  C_5
REMARK    5  A    between atoms: C_4  and  C_6
REMARK    6  A    between atoms: C_5  and  C_7
REMARK    7  A    between atoms: C_6  and  C_8
REMARK    8  A    between atoms: C_7  and  C_9
REMARK    9  A    between atoms: C_8  and  C_10
REMARK   10  A    between atoms: C_9  and  C_11
REMARK   11  A    between atoms: C_10  and  C_12
REMARK   12  A    between atoms: C_13  and  C_14
REMARK                            x       y       z     vdW  Elec       q    Type
REMARK                         _______ _______ _______ _____ _____    ______ ____
ROOT
ATOM      1  C   UNL     1      -2.618   9.763 -10.017  0.00  0.00    +0.000 C 
ATOM      2  H   UNL     1      -3.211  10.676  -9.885  0.00  0.00    +0.000 HD
ATOM      3  H   UNL     1      -3.119   9.161 -10.785  0.00  0.00    +0.000 HD
ENDROOT
BRANCH   1   4
ATOM      4  C   UNL     1      -2.577   8.984  -8.700  0.00  0.00    +0.000 C 
ATOM      5  H   UNL     1      -1.538   8.751  -8.441  0.00  0.00    +0.000 HD
ATOM      6  H   UNL     1      -2.980   9.606  -7.892  0.00  0.00    +0.000 HD
BRANCH   4   7
ATOM      7  C   UNL     1      -3.385   7.689  -8.798  0.00  0.00    +0.000 C 
ATOM      8  H   UNL     1      -4.453   7.933  -8.863  0.00  0.00    +0.000 HD
ATOM      9  H   UNL     1      -3.249   7.108  -7.876  0.00  0.00    +0.000 HD
BRANCH   7  10
ATOM     10  C   UNL     1      -2.995   6.816  -9.994  0.00  0.00    +0.000 C 
ATOM     11  H   UNL     1      -2.750   5.807  -9.640  0.00  0.00    +0.000 HD
ATOM     12  H   UNL     1      -2.082   7.224 -10.446  0.00  0.00    +0.000 HD
BRANCH  10  13
ATOM     13  C   UNL     1      -4.088   6.723 -11.060  0.00  0.00    +0.000 C 
ATOM     14  H   UNL     1      -4.860   7.476 -10.867  0.00  0.00    +0.000 HD
ATOM     15  H   UNL     1      -4.573   5.741 -11.009  0.00  0.00    +0.000 HD
BRANCH  13  16
ATOM     16  C   UNL     1      -3.521   6.936 -12.455  0.00  0.00    +0.000 C 
ATOM     17  H   UNL     1      -2.508   7.348 -12.408  0.00  0.00    +0.000 HD
ATOM     18  H   UNL     1      -4.147   7.636 -13.016  0.00  0.00    +0.000 HD
ATOM     19  H   UNL     1      -3.485   5.994 -13.012  0.00  0.00    +0.000 HD
ENDBRANCH  13  16
ENDBRANCH  10  13
ENDBRANCH   7  10
ENDBRANCH   4   7
ENDBRANCH   1   4
BRANCH   1  20
ATOM     20  C   UNL     1      -1.212  10.133 -10.490  0.00  0.00    +0.000 C 
ATOM     21  H   UNL     1      -1.195  11.182 -10.814  0.00  0.00    +0.000 HD
ATOM     22  H   UNL     1      -0.509  10.042  -9.653  0.00  0.00    +0.000 HD
BRANCH  20  23
ATOM     23  C   UNL     1      -0.758   9.237 -11.643  0.00  0.00    +0.000 C 
ATOM     24  H   UNL     1      -1.459   8.401 -11.758  0.00  0.00    +0.000 HD
ATOM     25  H   UNL     1       0.220   8.800 -11.400  0.00  0.00    +0.000 HD
BRANCH  23  26
ATOM     26  C   UNL     1      -0.665  10.018 -12.949  0.00  0.00    +0.000 C 
ATOM     27  H   UNL     1      -1.657  10.382 -13.237  0.00  0.00    +0.000 HD
ATOM     28  H   UNL     1       0.012  10.871 -12.830  0.00  0.00    +0.000 HD
BRANCH  26  30
ATOM     29  O   UNL     1      -0.664   8.099 -14.412  0.00  0.00    +0.000 OA
ATOM     30  C   UNL     1      -0.134   9.143 -14.056  0.00  0.00    +0.000 C 
BRANCH  30  31
ATOM     31  O   UNL     1       0.988   9.702 -14.592  0.00  0.00    +0.000 OA
BRANCH  31  32
ATOM     32  C   UNL     1       0.765  10.806 -15.474  0.00  0.00    +0.000 C 
ATOM     33  H   UNL     1      -0.212  11.253 -15.259  0.00  0.00    +0.000 HD
ATOM     34  H   UNL     1       0.784  10.455 -16.512  0.00  0.00    +0.000 HD
BRANCH  32  35
ATOM     35  C   UNL     1       1.856  11.835 -15.263  0.00  0.00    +0.000 C 
ATOM     36  H   UNL     1       1.924  12.112 -14.205  0.00  0.00    +0.000 HD
ATOM     37  H   UNL     1       2.831  11.426 -15.547  0.00  0.00    +0.000 HD
ATOM     38  H   UNL     1       1.665  12.735 -15.852  0.00  0.00    +0.000 HD
ENDBRANCH  32  35
ENDBRANCH  31  32
ENDBRANCH  30  31
ENDBRANCH  26  30
ENDBRANCH  23  26
ENDBRANCH  20  23
ENDBRANCH   1  20
TORSDOF 12
ENDMDL
MODEL 3
REMARK VINA RESULT:    -4.433     13.982     15.636
REMARK INTER + INTRA:          -8.419
REMARK INTER:                  -7.479
REMARK INTRA:                  -0.939
REMARK UNBOUND:                -1.135
REMARK  Name = 8048
REMARK  12 active torsions:
REMARK  status: ('A' for Active; 'I' for Inactive)
REMARK    1  A    between atoms: O_1  and  C_12
REMARK    2  A    between atoms: O_1  and  C_13
REMARK    3  A    between atoms: C_3  and  C_4
REMARK    4  A    between atoms: C_3  and  C_5
REMARK    5  A    between atoms: C_4  and  C_6
REMARK    6  A    between atoms: C_5  and  C_7
REMARK    7  A    between atoms: C_6  and  C_8
REMARK    8  A    between atoms: C_7  and  C_9
REMARK    9  A    between atoms: C_8  and  C_10
REMARK   10  A    between atoms: C_9  and  C_11
REMARK   11  A    between atoms: C_10  and  C_12
REMARK   12  A    between atoms: C_13  and  C_14
REMARK                            x       y       z     vdW  Elec       q    Type
REMARK                         _______ _______ _______ _____ _____    ______ ____
ROOT
ATOM      1  C   UNL     1      -4.043   6.763 -11.479  0.00  0.00    +0.000 C 
ATOM      2  H   UNL     1      -4.448   7.672 -11.943  0.00  0.00    +0.000 HD
ATOM      3  H   UNL     1      -4.506   5.908 -11.986  0.00  0.00    +0.000 HD
ENDROOT
BRANCH   1   4
ATOM      4  C   UNL     1      -4.411   6.740  -9.993  0.00  0.00    +0.000 C 
ATOM      5  H   UNL     1      -5.162   7.512  -9.786  0.00  0.00    +0.000 HD
ATOM      6  H   UNL     1      -4.863   5.773  -9.741  0.00  0.00    +0.000 HD
BRANCH   4   7
ATOM      7  C   UNL     1      -3.181   6.973  -9.114  0.00  0.00    +0.000 C 
ATOM      8  H   UNL     1      -2.274   6.834  -9.717  0.00  0.00    +0.000 HD
ATOM      9  H   UNL     1      -3.153   6.212  -8.323  0.00  0.00    +0.000 HD
BRANCH   7  10
ATOM     10  C   UNL     1      -3.147   8.360  -8.468  0.00  0.00    +0.000 C 
ATOM     11  H   UNL     1      -2.870   8.259  -7.411  0.00  0.00    +0.000 HD
ATOM     12  H   UNL     1      -4.159   8.785  -8.490  0.00  0.00    +0.000 HD
BRANCH  10  13
ATOM     13  C   UNL     1      -2.178   9.326  -9.151  0.00  0.00    +0.000 C 
ATOM     14  H   UNL     1      -1.324   8.771  -9.555  0.00  0.00    +0.000 HD
ATOM     15  H   UNL     1      -1.785  10.038  -8.417  0.00  0.00    +0.000 HD
BRANCH  13  16
ATOM     16  C   UNL     1      -2.858  10.086 -10.280  0.00  0.00    +0.000 C 
ATOM     17  H   UNL     1      -2.119  10.550 -10.942  0.00  0.00    +0.000 HD
ATOM     18  H   UNL     1      -3.494  10.878  -9.874  0.00  0.00    +0.000 HD
ATOM     19  H   UNL     1      -3.487   9.420 -10.879  0.00  0.00    +0.000 HD
ENDBRANCH  13  16
ENDBRANCH  10  13
ENDBRANCH   7  10
ENDBRANCH   4   7
ENDBRANCH   1   4
BRANCH   1  20
ATOM     20  C   UNL     1      -2.528   6.721 -11.678  0.00  0.00    +0.000 C 
ATOM     21  H   UNL     1      -2.031   7.226 -10.839  0.00  0.00    +0.000 HD
ATOM     22  H   UNL     1      -2.187   5.679 -11.674  0.00  0.00    +0.000 HD
BRANCH  20  23
ATOM     23  C   UNL     1      -2.119   7.391 -12.989  0.00  0.00    +0.000 C 
ATOM     24  H   UNL     1      -2.872   8.138 -13.272  0.00  0.00    +0.000 HD
ATOM     25  H   UNL     1      -2.101   6.641 -13.791  0.00  0.00    +0.000 HD
BRANCH  23  26
ATOM     26  C   UNL     1      -0.752   8.055 -12.871  0.00  0.00    +0.000 C 
ATOM     27  H   UNL     1      -0.788   8.854 -12.123  0.00  0.00    +0.000 HD
ATOM     28  H   UNL     1       0.001   7.316 -12.575  0.00  0.00    +0.000 HD
BRANCH  26  30
ATOM     29  O   UNL     1      -0.856   8.371 -15.261  0.00  0.00    +0.000 OA
ATOM     30  C   UNL     1      -0.334   8.652 -14.191  0.00  0.00    +0.000 C 
BRANCH  30  31
ATOM     31  O   UNL     1       0.677   9.547 -13.997  0.00  0.00    +0.000 OA
BRANCH  31  32
ATOM     32  C   UNL     1       0.948  10.417 -15.099  0.00  0.00    +0.000 C 
ATOM     33  H   UNL     1       0.344  10.114 -15.961  0.00  0.00    +0.000 HD
ATOM     34  H   UNL     1       2.010  10.357 -15.360  0.00  0.00    +0.000 HD
BRANCH  32  35
ATOM     35  C   UNL     1       0.600  11.837 -14.705  0.00  0.00    +0.000 C 
ATOM     36  H   UNL     1       0.116  11.855 -13.722  0.00  0.00    +0.000 HD
ATOM     37  H   UNL     1       1.505  12.448 -14.625  0.00  0.00    +0.000 HD
ATOM     38  H   UNL     1      -0.071  12.293 -15.437  0.00  0.00    +0.000 HD
ENDBRANCH  32  35
ENDBRANCH  31  32
ENDBRANCH  30  31
ENDBRANCH  26  30
ENDBRANCH  23  26
ENDBRANCH  20  23
ENDBRANCH   1  20
TORSDOF 12
ENDMDL
MODEL 4
REMARK VINA RESULT:    -4.422      2.180      4.317
REMARK INTER + INTRA:          -8.401
REMARK INTER:                  -7.811
REMARK INTRA:                  -0.590
REMARK UNBOUND:                -1.135
REMARK  Name = 8048
REMARK  12 active torsions:
REMARK  status: ('A' for Active; 'I' for Inactive)
REMARK    1  A    between atoms: O_1  and  C_12
REMARK    2  A    between atoms: O_1  and  C_13
REMARK    3  A    between atoms: C_3  and  C_4
REMARK    4  A    between atoms: C_3  and  C_5
REMARK    5  A    between atoms: C_4  and  C_6
REMARK    6  A    between atoms: C_5  and  C_7
REMARK    7  A    between atoms: C_6  and  C_8
REMARK    8  A    between atoms: C_7  and  C_9
REMARK    9  A    between atoms: C_8  and  C_10
REMARK   10  A    between atoms: C_9  and  C_11
REMARK   11  A    between atoms: C_10  and  C_12
REMARK   12  A    between atoms: C_13  and  C_14
REMARK                            x       y       z     vdW  Elec       q    Type
REMARK                         _______ _______ _______ _____ _____    ______ ____
ROOT
ATOM      1  C   UNL     1       5.946   7.256   4.732  0.00  0.00    +0.000 C 
ATOM      2  H   UNL     1       4.920   7.035   5.051  0.00  0.00    +0.000 HD
ATOM      3  H   UNL     1       6.598   6.507   5.197  0.00  0.00    +0.000 HD
ENDROOT
BRANCH   1   4
ATOM      4  C   UNL     1       6.342   8.653   5.214  0.00  0.00    +0.000 C 
ATOM      5  H   UNL     1       6.299   9.359   4.376  0.00  0.00    +0.000 HD
ATOM      6  H   UNL     1       5.625   9.000   5.967  0.00  0.00    +0.000 HD
BRANCH   4   7
ATOM      7  C   UNL     1       7.750   8.653   5.813  0.00  0.00    +0.000 C 
ATOM      8  H   UNL     1       8.489   8.655   5.001  0.00  0.00    +0.000 HD
ATOM      9  H   UNL     1       7.903   7.724   6.377  0.00  0.00    +0.000 HD
BRANCH   7  10
ATOM     10  C   UNL     1       8.018   9.843   6.738  0.00  0.00    +0.000 C 
ATOM     11  H   UNL     1       7.063  10.310   7.011  0.00  0.00    +0.000 HD
ATOM     12  H   UNL     1       8.592  10.599   6.186  0.00  0.00    +0.000 HD
BRANCH  10  13
ATOM     13  C   UNL     1       8.774   9.465   8.012  0.00  0.00    +0.000 C 
ATOM     14  H   UNL     1       8.155   9.683   8.890  0.00  0.00    +0.000 HD
ATOM     15  H   UNL     1       9.683  10.071   8.097  0.00  0.00    +0.000 HD
BRANCH  13  16
ATOM     16  C   UNL     1       9.147   7.990   8.018  0.00  0.00    +0.000 C 
ATOM     17  H   UNL     1       8.742   7.480   7.138  0.00  0.00    +0.000 HD
ATOM     18  H   UNL     1       8.742   7.501   8.910  0.00  0.00    +0.000 HD
ATOM     19  H   UNL     1      10.233   7.860   8.024  0.00  0.00    +0.000 HD
ENDBRANCH  13  16
ENDBRANCH  10  13
ENDBRANCH   7  10
ENDBRANCH   4   7
ENDBRANCH   1   4
BRANCH   1  20
ATOM     20  C   UNL     1       6.040   7.144   3.209  0.00  0.00    +0.000 C 
ATOM     21  H   UNL     1       7.068   6.888   2.921  0.00  0.00    +0.000 HD
ATOM     22  H   UNL     1       5.396   6.328   2.862  0.00  0.00    +0.000 HD
BRANCH  20  23
ATOM     23  C   UNL     1       5.630   8.449   2.528  0.00  0.00    +0.000 C 
ATOM     24  H   UNL     1       6.209   8.581   1.606  0.00  0.00    +0.000 HD
ATOM     25  H   UNL     1       5.880   9.295   3.183  0.00  0.00    +0.000 HD
BRANCH  23  26
ATOM     26  C   UNL     1       4.140   8.465   2.211  0.00  0.00    +0.000 C 
ATOM     27  H   UNL     1       3.796   7.450   1.985  0.00  0.00    +0.000 HD
ATOM     28  H   UNL     1       3.576   8.856   3.066  0.00  0.00    +0.000 HD
BRANCH  26  30
ATOM     29  O   UNL     1       3.538   8.914  -0.083  0.00  0.00    +0.000 OA
ATOM     30  C   UNL     1       3.858   9.343   1.018  0.00  0.00    +0.000 C 
BRANCH  30  31
ATOM     31  O   UNL     1       3.993  10.655   1.365  0.00  0.00    +0.000 OA
BRANCH  31  32
ATOM     32  C   UNL     1       4.245  11.555   0.282  0.00  0.00    +0.000 C 
ATOM     33  H   UNL     1       3.826  12.539   0.519  0.00  0.00    +0.000 HD
ATOM     34  H   UNL     1       3.776  11.171  -0.631  0.00  0.00    +0.000 HD
BRANCH  32  35
ATOM     35  C   UNL     1       5.741  11.673   0.076  0.00  0.00    +0.000 C 
ATOM     36  H   UNL     1       5.962  12.310  -0.787  0.00  0.00    +0.000 HD
ATOM     37  H   UNL     1       6.214  12.141   0.946  0.00  0.00    +0.000 HD
ATOM     38  H   UNL     1       6.192  10.691  -0.085  0.00  0.00    +0.000 HD
ENDBRANCH  32  35
ENDBRANCH  31  32
ENDBRANCH  30  31
ENDBRANCH  26  30
ENDBRANCH  23  26
ENDBRANCH  20  23
ENDBRANCH   1  20
TORSDOF 12
ENDMDL
MODEL 5
REMARK VINA RESULT:    -4.319     14.112     16.183
REMARK INTER + INTRA:          -8.232
REMARK INTER:                  -7.690
REMARK INTRA:                  -0.542
REMARK UNBOUND:                -1.135
REMARK  Name = 8048
REMARK  12 active torsions:
REMARK  status: ('A' for Active; 'I' for Inactive)
REMARK    1  A    between atoms: O_1  and  C_12
REMARK    2  A    between atoms: O_1  and  C_13
REMARK    3  A    between atoms: C_3  and  C_4
REMARK    4  A    between atoms: C_3  and  C_5
REMARK    5  A    between atoms: C_4  and  C_6
REMARK    6  A    between atoms: C_5  and  C_7
REMARK    7  A    between atoms: C_6  and  C_8
REMARK    8  A    between atoms: C_7  and  C_9
REMARK    9  A    between atoms: C_8  and  C_10
REMARK   10  A    between atoms: C_9  and  C_11
REMARK   11  A    between atoms: C_10  and  C_12
REMARK   12  A    between atoms: C_13  and  C_14
REMARK                            x       y       z     vdW  Elec       q    Type
REMARK                         _______ _______ _______ _____ _____    ______ ____
ROOT
ATOM      1  C   UNL     1      -3.177   6.896  -9.343  0.00  0.00    +0.000 C 
ATOM      2  H   UNL     1      -2.780   6.058  -8.758  0.00  0.00    +0.000 HD
ATOM      3  H   UNL     1      -2.530   7.015 -10.220  0.00  0.00    +0.000 HD
ENDROOT
BRANCH   1   4
ATOM      4  C   UNL     1      -3.139   8.173  -8.500  0.00  0.00    +0.000 C 
ATOM      5  H   UNL     1      -4.155   8.561  -8.369  0.00  0.00    +0.000 HD
ATOM      6  H   UNL     1      -2.749   7.943  -7.501  0.00  0.00    +0.000 HD
BRANCH   4   7
ATOM      7  C   UNL     1      -2.261   9.242  -9.155  0.00  0.00    +0.000 C 
ATOM      8  H   UNL     1      -1.341   8.776  -9.528  0.00  0.00    +0.000 HD
ATOM      9  H   UNL     1      -1.959   9.976  -8.396  0.00  0.00    +0.000 HD
BRANCH   7  10
ATOM     10  C   UNL     1      -2.954   9.977 -10.305  0.00  0.00    +0.000 C 
ATOM     11  H   UNL     1      -2.931  11.057 -10.109  0.00  0.00    +0.000 HD
ATOM     12  H   UNL     1      -4.012   9.683 -10.327  0.00  0.00    +0.000 HD
BRANCH  10  13
ATOM     13  C   UNL     1      -2.324   9.701 -11.671  0.00  0.00    +0.000 C 
ATOM     14  H   UNL     1      -2.836  10.288 -12.441  0.00  0.00    +0.000 HD
ATOM     15  H   UNL     1      -2.451   8.643 -11.931  0.00  0.00    +0.000 HD
BRANCH  13  16
ATOM     16  C   UNL     1      -0.843  10.049 -11.679  0.00  0.00    +0.000 C 
ATOM     17  H   UNL     1      -0.611  10.754 -12.483  0.00  0.00    +0.000 HD
ATOM     18  H   UNL     1      -0.243   9.148 -11.832  0.00  0.00    +0.000 HD
ATOM     19  H   UNL     1      -0.542  10.499 -10.728  0.00  0.00    +0.000 HD
ENDBRANCH  13  16
ENDBRANCH  10  13
ENDBRANCH   7  10
ENDBRANCH   4   7
ENDBRANCH   1   4
BRANCH   1  20
ATOM     20  C   UNL     1      -4.602   6.571  -9.796  0.00  0.00    +0.000 C 
ATOM     21  H   UNL     1      -5.101   7.489 -10.133  0.00  0.00    +0.000 HD
ATOM     22  H   UNL     1      -4.565   5.890 -10.655  0.00  0.00    +0.000 HD
BRANCH  20  23
ATOM     23  C   UNL     1      -5.413   5.935  -8.668  0.00  0.00    +0.000 C 
ATOM     24  H   UNL     1      -5.334   6.551  -7.764  0.00  0.00    +0.000 HD
ATOM     25  H   UNL     1      -4.986   4.954  -8.422  0.00  0.00    +0.000 HD
BRANCH  23  26
ATOM     26  C   UNL     1      -6.878   5.776  -9.060  0.00  0.00    +0.000 C 
ATOM     27  H   UNL     1      -7.192   6.621  -9.681  0.00  0.00    +0.000 HD
ATOM     28  H   UNL     1      -7.020   4.844  -9.619  0.00  0.00    +0.000 HD
BRANCH  26  30
ATOM     29  O   UNL     1      -8.541   6.615  -7.527  0.00  0.00    +0.000 OA
ATOM     30  C   UNL     1      -7.755   5.729  -7.835  0.00  0.00    +0.000 C 
BRANCH  30  31
ATOM     31  O   UNL     1      -7.550   4.562  -7.159  0.00  0.00    +0.000 OA
BRANCH  31  32
ATOM     32  C   UNL     1      -8.671   4.076  -6.416  0.00  0.00    +0.000 C 
ATOM     33  H   UNL     1      -8.855   3.028  -6.676  0.00  0.00    +0.000 HD
ATOM     34  H   UNL     1      -9.557   4.672  -6.658  0.00  0.00    +0.000 HD
BRANCH  32  35
ATOM     35  C   UNL     1      -8.368   4.189  -4.936  0.00  0.00    +0.000 C 
ATOM     36  H   UNL     1      -8.620   5.190  -4.567  0.00  0.00    +0.000 HD
ATOM     37  H   UNL     1      -8.972   3.478  -4.364  0.00  0.00    +0.000 HD
ATOM     38  H   UNL     1      -7.311   3.995  -4.737  0.00  0.00    +0.000 HD
ENDBRANCH  32  35
ENDBRANCH  31  32
ENDBRANCH  30  31
ENDBRANCH  26  30
ENDBRANCH  23  26
ENDBRANCH  20  23
ENDBRANCH   1  20
TORSDOF 12
ENDMDL
MODEL 6
REMARK VINA RESULT:    -4.306     14.402     16.356
REMARK INTER + INTRA:          -8.210
REMARK INTER:                  -7.407
REMARK INTRA:                  -0.803
REMARK UNBOUND:                -1.135
REMARK  Name = 8048
REMARK  12 active torsions:
REMARK  status: ('A' for Active; 'I' for Inactive)
REMARK    1  A    between atoms: O_1  and  C_12
REMARK    2  A    between atoms: O_1  and  C_13
REMARK    3  A    between atoms: C_3  and  C_4
REMARK    4  A    between atoms: C_3  and  C_5
REMARK    5  A    between atoms: C_4  and  C_6
REMARK    6  A    between atoms: C_5  and  C_7
REMARK    7  A    between atoms: C_6  and  C_8
REMARK    8  A    between atoms: C_7  and  C_9
REMARK    9  A    between atoms: C_8  and  C_10
REMARK   10  A    between atoms: C_9  and  C_11
REMARK   11  A    between atoms: C_10  and  C_12
REMARK   12  A    between atoms: C_13  and  C_14
REMARK                            x       y       z     vdW  Elec       q    Type
REMARK                         _______ _______ _______ _____ _____    ______ ____
ROOT
ATOM      1  C   UNL     1      -5.814   6.347 -10.284  0.00  0.00    +0.000 C 
ATOM      2  H   UNL     1      -6.264   5.464 -10.756  0.00  0.00    +0.000 HD
ATOM      3  H   UNL     1      -6.559   7.150 -10.325  0.00  0.00    +0.000 HD
ENDROOT
BRANCH   1   4
ATOM      4  C   UNL     1      -4.566   6.764 -11.065  0.00  0.00    +0.000 C 
ATOM      5  H   UNL     1      -4.393   6.062 -11.889  0.00  0.00    +0.000 HD
ATOM      6  H   UNL     1      -4.724   7.754 -11.510  0.00  0.00    +0.000 HD
BRANCH   4   7
ATOM      7  C   UNL     1      -3.334   6.805 -10.158  0.00  0.00    +0.000 C 
ATOM      8  H   UNL     1      -2.887   5.804 -10.111  0.00  0.00    +0.000 HD
ATOM      9  H   UNL     1      -3.645   7.061  -9.137  0.00  0.00    +0.000 HD
BRANCH   7  10
ATOM     10  C   UNL     1      -2.273   7.808 -10.618  0.00  0.00    +0.000 C 
ATOM     11  H   UNL     1      -2.178   7.758 -11.710  0.00  0.00    +0.000 HD
ATOM     12  H   UNL     1      -1.301   7.510 -10.203  0.00  0.00    +0.000 HD
BRANCH  10  13
ATOM     13  C   UNL     1      -2.578   9.249 -10.205  0.00  0.00    +0.000 C 
ATOM     14  H   UNL     1      -3.435   9.624 -10.775  0.00  0.00    +0.000 HD
ATOM     15  H   UNL     1      -1.723   9.892 -10.443  0.00  0.00    +0.000 HD
BRANCH  13  16
ATOM     16  C   UNL     1      -2.887   9.346  -8.719  0.00  0.00    +0.000 C 
ATOM     17  H   UNL     1      -2.198  10.034  -8.219  0.00  0.00    +0.000 HD
ATOM     18  H   UNL     1      -2.787   8.363  -8.247  0.00  0.00    +0.000 HD
ATOM     19  H   UNL     1      -3.909   9.699  -8.553  0.00  0.00    +0.000 HD
ENDBRANCH  13  16
ENDBRANCH  10  13
ENDBRANCH   7  10
ENDBRANCH   4   7
ENDBRANCH   1   4
BRANCH   1  20
ATOM     20  C   UNL     1      -5.480   6.031  -8.826  0.00  0.00    +0.000 C 
ATOM     21  H   UNL     1      -4.526   5.489  -8.775  0.00  0.00    +0.000 HD
ATOM     22  H   UNL     1      -5.348   6.967  -8.270  0.00  0.00    +0.000 HD
BRANCH  20  23
ATOM     23  C   UNL     1      -6.578   5.193  -8.172  0.00  0.00    +0.000 C 
ATOM     24  H   UNL     1      -6.389   5.115  -7.093  0.00  0.00    +0.000 HD
ATOM     25  H   UNL     1      -6.544   4.171  -8.573  0.00  0.00    +0.000 HD
BRANCH  23  26
ATOM     26  C   UNL     1      -7.956   5.797  -8.414  0.00  0.00    +0.000 C 
ATOM     27  H   UNL     1      -7.922   6.469  -9.278  0.00  0.00    +0.000 HD
ATOM     28  H   UNL     1      -8.688   5.003  -8.602  0.00  0.00    +0.000 HD
BRANCH  26  30
ATOM     29  O   UNL     1      -9.290   7.436  -7.250  0.00  0.00    +0.000 OA
ATOM     30  C   UNL     1      -8.412   6.584  -7.212  0.00  0.00    +0.000 C 
BRANCH  30  31
ATOM     31  O   UNL     1      -7.721   6.185  -6.105  0.00  0.00    +0.000 OA
BRANCH  31  32
ATOM     32  C   UNL     1      -8.523   5.753  -5.002  0.00  0.00    +0.000 C 
ATOM     33  H   UNL     1      -9.575   5.987  -5.201  0.00  0.00    +0.000 HD
ATOM     34  H   UNL     1      -8.201   6.270  -4.092  0.00  0.00    +0.000 HD
BRANCH  32  35
ATOM     35  C   UNL     1      -8.356   4.258  -4.827  0.00  0.00    +0.000 C 
ATOM     36  H   UNL     1      -7.460   4.037  -4.236  0.00  0.00    +0.000 HD
ATOM     37  H   UNL     1      -9.208   3.836  -4.283  0.00  0.00    +0.000 HD
ATOM     38  H   UNL     1      -8.273   3.757  -5.795  0.00  0.00    +0.000 HD
ENDBRANCH  32  35
ENDBRANCH  31  32
ENDBRANCH  30  31
ENDBRANCH  26  30
ENDBRANCH  23  26
ENDBRANCH  20  23
ENDBRANCH   1  20
TORSDOF 12
ENDMDL
MODEL 7
REMARK VINA RESULT:    -4.279      2.510      4.083
REMARK INTER + INTRA:          -8.165
REMARK INTER:                  -7.660
REMARK INTRA:                  -0.506
REMARK UNBOUND:                -1.135
REMARK  Name = 8048
REMARK  12 active torsions:
REMARK  status: ('A' for Active; 'I' for Inactive)
REMARK    1  A    between atoms: O_1  and  C_12
REMARK    2  A    between atoms: O_1  and  C_13
REMARK    3  A    between atoms: C_3  and  C_4
REMARK    4  A    between atoms: C_3  and  C_5
REMARK    5  A    between atoms: C_4  and  C_6
REMARK    6  A    between atoms: C_5  and  C_7
REMARK    7  A    between atoms: C_6  and  C_8
REMARK    8  A    between atoms: C_7  and  C_9
REMARK    9  A    between atoms: C_8  and  C_10
REMARK   10  A    between atoms: C_9  and  C_11
REMARK   11  A    between atoms: C_10  and  C_12
REMARK   12  A    between atoms: C_13  and  C_14
REMARK                            x       y       z     vdW  Elec       q    Type
REMARK                         _______ _______ _______ _____ _____    ______ ____
ROOT
ATOM      1  C   UNL     1       6.389   7.937   3.722  0.00  0.00    +0.000 C 
ATOM      2  H   UNL     1       5.556   8.217   4.379  0.00  0.00    +0.000 HD
ATOM      3  H   UNL     1       6.640   6.893   3.945  0.00  0.00    +0.000 HD
ENDROOT
BRANCH   1   4
ATOM      4  C   UNL     1       7.597   8.830   4.018  0.00  0.00    +0.000 C 
ATOM      5  H   UNL     1       8.490   8.414   3.539  0.00  0.00    +0.000 HD
ATOM      6  H   UNL     1       7.433   9.825   3.588  0.00  0.00    +0.000 HD
BRANCH   4   7
ATOM      7  C   UNL     1       7.834   8.959   5.524  0.00  0.00    +0.000 C 
ATOM      8  H   UNL     1       8.363   8.067   5.884  0.00  0.00    +0.000 HD
ATOM      9  H   UNL     1       6.867   8.983   6.042  0.00  0.00    +0.000 HD
BRANCH   7  10
ATOM     10  C   UNL     1       8.634  10.206   5.910  0.00  0.00    +0.000 C 
ATOM     11  H   UNL     1       9.205  10.000   6.823  0.00  0.00    +0.000 HD
ATOM     12  H   UNL     1       7.932  11.015   6.152  0.00  0.00    +0.000 HD
BRANCH  10  13
ATOM     13  C   UNL     1       9.590  10.679   4.814  0.00  0.00    +0.000 C 
ATOM     14  H   UNL     1       9.087  11.414   4.175  0.00  0.00    +0.000 HD
ATOM     15  H   UNL     1       9.870   9.833   4.176  0.00  0.00    +0.000 HD
BRANCH  13  16
ATOM     16  C   UNL     1      10.843  11.306   5.405  0.00  0.00    +0.000 C 
ATOM     17  H   UNL     1      10.607  11.884   6.304  0.00  0.00    +0.000 HD
ATOM     18  H   UNL     1      11.308  11.980   4.679  0.00  0.00    +0.000 HD
ATOM     19  H   UNL     1      11.577  10.539   5.672  0.00  0.00    +0.000 HD
ENDBRANCH  13  16
ENDBRANCH  10  13
ENDBRANCH   7  10
ENDBRANCH   4   7
ENDBRANCH   1   4
BRANCH   1  20
ATOM     20  C   UNL     1       5.950   8.060   2.263  0.00  0.00    +0.000 C 
ATOM     21  H   UNL     1       6.674   8.671   1.709  0.00  0.00    +0.000 HD
ATOM     22  H   UNL     1       5.943   7.067   1.798  0.00  0.00    +0.000 HD
BRANCH  20  23
ATOM     23  C   UNL     1       4.562   8.690   2.150  0.00  0.00    +0.000 C 
ATOM     24  H   UNL     1       4.460   9.493   2.891  0.00  0.00    +0.000 HD
ATOM     25  H   UNL     1       3.800   7.937   2.392  0.00  0.00    +0.000 HD
BRANCH  23  26
ATOM     26  C   UNL     1       4.314   9.243   0.752  0.00  0.00    +0.000 C 
ATOM     27  H   UNL     1       5.204   9.096   0.130  0.00  0.00    +0.000 HD
ATOM     28  H   UNL     1       3.462   8.733   0.290  0.00  0.00    +0.000 HD
BRANCH  26  30
ATOM     29  O   UNL     1       3.201  11.216   1.583  0.00  0.00    +0.000 OA
ATOM     30  C   UNL     1       4.007  10.718   0.808  0.00  0.00    +0.000 C 
BRANCH  30  31
ATOM     31  O   UNL     1       4.769  11.387  -0.103  0.00  0.00    +0.000 OA
BRANCH  31  32
ATOM     32  C   UNL     1       5.633  10.572  -0.901  0.00  0.00    +0.000 C 
ATOM     33  H   UNL     1       5.159  10.379  -1.870  0.00  0.00    +0.000 HD
ATOM     34  H   UNL     1       5.815   9.622  -0.388  0.00  0.00    +0.000 HD
BRANCH  32  35
ATOM     35  C   UNL     1       6.944  11.300  -1.110  0.00  0.00    +0.000 C 
ATOM     36  H   UNL     1       7.422  11.517  -0.148  0.00  0.00    +0.000 HD
ATOM     37  H   UNL     1       7.644  10.678  -1.678  0.00  0.00    +0.000 HD
ATOM     38  H   UNL     1       6.790  12.239  -1.647  0.00  0.00    +0.000 HD
ENDBRANCH  32  35
ENDBRANCH  31  32
ENDBRANCH  30  31
ENDBRANCH  26  30
ENDBRANCH  23  26
ENDBRANCH  20  23
ENDBRANCH   1  20
TORSDOF 12
ENDMDL
MODEL 8
REMARK VINA RESULT:    -4.279     14.315     16.373
REMARK INTER + INTRA:          -8.165
REMARK INTER:                  -7.618
REMARK INTRA:                  -0.547
REMARK UNBOUND:                -1.135
REMARK  Name = 8048
REMARK  12 active torsions:
REMARK  status: ('A' for Active; 'I' for Inactive)
REMARK    1  A    between atoms: O_1  and  C_12
REMARK    2  A    between atoms: O_1  and  C_13
REMARK    3  A    between atoms: C_3  and  C_4
REMARK    4  A    between atoms: C_3  and  C_5
REMARK    5  A    between atoms: C_4  and  C_6
REMARK    6  A    between atoms: C_5  and  C_7
REMARK    7  A    between atoms: C_6  and  C_8
REMARK    8  A    between atoms: C_7  and  C_9
REMARK    9  A    between atoms: C_8  and  C_10
REMARK   10  A    between atoms: C_9  and  C_11
REMARK   11  A    between atoms: C_10  and  C_12
REMARK   12  A    between atoms: C_13  and  C_14
REMARK                            x       y       z     vdW  Elec       q    Type
REMARK                         _______ _______ _______ _____ _____    ______ ____
ROOT
ATOM      1  C   UNL     1      -5.449   6.328 -10.116  0.00  0.00    +0.000 C 
ATOM      2  H   UNL     1      -5.641   5.476 -10.780  0.00  0.00    +0.000 HD
ATOM      3  H   UNL     1      -6.101   7.147 -10.443  0.00  0.00    +0.000 HD
ENDROOT
BRANCH   1   4
ATOM      4  C   UNL     1      -3.985   6.755 -10.240  0.00  0.00    +0.000 C 
ATOM      5  H   UNL     1      -3.389   5.922 -10.631  0.00  0.00    +0.000 HD
ATOM      6  H   UNL     1      -3.902   7.579 -10.960  0.00  0.00    +0.000 HD
BRANCH   4   7
ATOM      7  C   UNL     1      -3.421   7.200  -8.889  0.00  0.00    +0.000 C 
ATOM      8  H   UNL     1      -2.653   6.488  -8.565  0.00  0.00    +0.000 HD
ATOM      9  H   UNL     1      -4.220   7.168  -8.136  0.00  0.00    +0.000 HD
BRANCH   7  10
ATOM     10  C   UNL     1      -2.822   8.609  -8.914  0.00  0.00    +0.000 C 
ATOM     11  H   UNL     1      -1.901   8.619  -8.317  0.00  0.00    +0.000 HD
ATOM     12  H   UNL     1      -3.522   9.300  -8.427  0.00  0.00    +0.000 HD
BRANCH  10  13
ATOM     13  C   UNL     1      -2.512   9.114 -10.324  0.00  0.00    +0.000 C 
ATOM     14  H   UNL     1      -3.362   9.690 -10.706  0.00  0.00    +0.000 HD
ATOM     15  H   UNL     1      -2.367   8.262 -10.999  0.00  0.00    +0.000 HD
BRANCH  13  16
ATOM     16  C   UNL     1      -1.268   9.989 -10.339  0.00  0.00    +0.000 C 
ATOM     17  H   UNL     1      -0.532   9.636  -9.609  0.00  0.00    +0.000 HD
ATOM     18  H   UNL     1      -1.529  11.021 -10.086  0.00  0.00    +0.000 HD
ATOM     19  H   UNL     1      -0.801   9.990 -11.328  0.00  0.00    +0.000 HD
ENDBRANCH  13  16
ENDBRANCH  10  13
ENDBRANCH   7  10
ENDBRANCH   4   7
ENDBRANCH   1   4
BRANCH   1  20
ATOM     20  C   UNL     1      -5.796   5.940  -8.678  0.00  0.00    +0.000 C 
ATOM     21  H   UNL     1      -5.411   4.934  -8.464  0.00  0.00    +0.000 HD
ATOM     22  H   UNL     1      -5.301   6.629  -7.983  0.00  0.00    +0.000 HD
BRANCH  20  23
ATOM     23  C   UNL     1      -7.306   5.968  -8.442  0.00  0.00    +0.000 C 
ATOM     24  H   UNL     1      -7.816   5.443  -9.259  0.00  0.00    +0.000 HD
ATOM     25  H   UNL     1      -7.658   7.007  -8.464  0.00  0.00    +0.000 HD
BRANCH  23  26
ATOM     26  C   UNL     1      -7.671   5.327  -7.108  0.00  0.00    +0.000 C 
ATOM     27  H   UNL     1      -8.427   4.549  -7.262  0.00  0.00    +0.000 HD
ATOM     28  H   UNL     1      -6.782   4.881  -6.648  0.00  0.00    +0.000 HD
BRANCH  26  30
ATOM     29  O   UNL     1      -8.080   6.311  -4.943  0.00  0.00    +0.000 OA
ATOM     30  C   UNL     1      -8.228   6.356  -6.157  0.00  0.00    +0.000 C 
BRANCH  30  31
ATOM     31  O   UNL     1      -8.885   7.327  -6.854  0.00  0.00    +0.000 OA
BRANCH  31  32
ATOM     32  C   UNL     1     -10.238   7.562  -6.455  0.00  0.00    +0.000 C 
ATOM     33  H   UNL     1     -10.570   6.753  -5.795  0.00  0.00    +0.000 HD
ATOM     34  H   UNL     1     -10.881   7.595  -7.342  0.00  0.00    +0.000 HD
BRANCH  32  35
ATOM     35  C   UNL     1     -10.313   8.884  -5.721  0.00  0.00    +0.000 C 
ATOM     36  H   UNL     1     -10.025   8.759  -4.671  0.00  0.00    +0.000 HD
ATOM     37  H   UNL     1      -9.616   9.607  -6.157  0.00  0.00    +0.000 HD
ATOM     38  H   UNL     1     -11.324   9.299  -5.763  0.00  0.00    +0.000 HD
ENDBRANCH  32  35
ENDBRANCH  31  32
ENDBRANCH  30  31
ENDBRANCH  26  30
ENDBRANCH  23  26
ENDBRANCH  20  23
ENDBRANCH   1  20
TORSDOF 12
ENDMDL
MODEL 9
REMARK VINA RESULT:    -4.238     14.673     16.346
REMARK INTER + INTRA:          -8.098
REMARK INTER:                  -7.598
REMARK INTRA:                  -0.500
REMARK UNBOUND:                -1.135
REMARK  Name = 8048
REMARK  12 active torsions:
REMARK  status: ('A' for Active; 'I' for Inactive)
REMARK    1  A    between atoms: O_1  and  C_12
REMARK    2  A    between atoms: O_1  and  C_13
REMARK    3  A    between atoms: C_3  and  C_4
REMARK    4  A    between atoms: C_3  and  C_5
REMARK    5  A    between atoms: C_4  and  C_6
REMARK    6  A    between atoms: C_5  and  C_7
REMARK    7  A    between atoms: C_6  and  C_8
REMARK    8  A    between atoms: C_7  and  C_9
REMARK    9  A    between atoms: C_8  and  C_10
REMARK   10  A    between atoms: C_9  and  C_11
REMARK   11  A    between atoms: C_10  and  C_12
REMARK   12  A    between atoms: C_13  and  C_14
REMARK                            x       y       z     vdW  Elec       q    Type
REMARK                         _______ _______ _______ _____ _____    ______ ____
ROOT
ATOM      1  C   UNL     1      -1.388   9.732 -12.570  0.00  0.00    +0.000 C 
ATOM      2  H   UNL     1      -1.445  10.650 -13.168  0.00  0.00    +0.000 HD
ATOM      3  H   UNL     1      -2.324   9.184 -12.730  0.00  0.00    +0.000 HD
ENDROOT
BRANCH   1   4
ATOM      4  C   UNL     1      -1.251  10.094 -11.089  0.00  0.00    +0.000 C 
ATOM      5  H   UNL     1      -0.463   9.484 -10.631  0.00  0.00    +0.000 HD
ATOM      6  H   UNL     1      -0.946  11.143 -10.993  0.00  0.00    +0.000 HD
BRANCH   4   7
ATOM      7  C   UNL     1      -2.568   9.877 -10.342  0.00  0.00    +0.000 C 
ATOM      8  H   UNL     1      -3.275   9.354 -10.999  0.00  0.00    +0.000 HD
ATOM      9  H   UNL     1      -3.016  10.851 -10.108  0.00  0.00    +0.000 HD
BRANCH   7  10
ATOM     10  C   UNL     1      -2.408   9.082  -9.043  0.00  0.00    +0.000 C 
ATOM     11  H   UNL     1      -2.726   9.704  -8.198  0.00  0.00    +0.000 HD
ATOM     12  H   UNL     1      -1.342   8.864  -8.891  0.00  0.00    +0.000 HD
BRANCH  10  13
ATOM     13  C   UNL     1      -3.198   7.772  -9.030  0.00  0.00    +0.000 C 
ATOM     14  H   UNL     1      -4.271   7.987  -9.073  0.00  0.00    +0.000 HD
ATOM     15  H   UNL     1      -3.011   7.236  -8.093  0.00  0.00    +0.000 HD
BRANCH  13  16
ATOM     16  C   UNL     1      -2.819   6.885 -10.206  0.00  0.00    +0.000 C 
ATOM     17  H   UNL     1      -2.124   6.099  -9.896  0.00  0.00    +0.000 HD
ATOM     18  H   UNL     1      -2.335   7.478 -10.988  0.00  0.00    +0.000 HD
ATOM     19  H   UNL     1      -3.705   6.411 -10.640  0.00  0.00    +0.000 HD
ENDBRANCH  13  16
ENDBRANCH  10  13
ENDBRANCH   7  10
ENDBRANCH   4   7
ENDBRANCH   1   4
BRANCH   1  20
ATOM     20  C   UNL     1      -0.208   8.885 -13.048  0.00  0.00    +0.000 C 
ATOM     21  H   UNL     1       0.472   8.692 -12.209  0.00  0.00    +0.000 HD
ATOM     22  H   UNL     1      -0.574   7.913 -13.398  0.00  0.00    +0.000 HD
BRANCH  20  23
ATOM     23  C   UNL     1       0.557   9.582 -14.173  0.00  0.00    +0.000 C 
ATOM     24  H   UNL     1       1.636   9.486 -13.999  0.00  0.00    +0.000 HD
ATOM     25  H   UNL     1       0.329  10.656 -14.158  0.00  0.00    +0.000 HD
BRANCH  23  26
ATOM     26  C   UNL     1       0.199   8.996 -15.534  0.00  0.00    +0.000 C 
ATOM     27  H   UNL     1       0.260   7.904 -15.498  0.00  0.00    +0.000 HD
ATOM     28  H   UNL     1      -0.819   9.292 -15.815  0.00  0.00    +0.000 HD
BRANCH  26  30
ATOM     29  O   UNL     1       1.465   8.846 -17.583  0.00  0.00    +0.000 OA
ATOM     30  C   UNL     1       1.146   9.496 -16.596  0.00  0.00    +0.000 C 
BRANCH  30  31
ATOM     31  O   UNL     1       1.558  10.760 -16.294  0.00  0.00    +0.000 OA
BRANCH  31  32
ATOM     32  C   UNL     1       1.974  11.554 -17.409  0.00  0.00    +0.000 C 
ATOM     33  H   UNL     1       1.331  12.438 -17.488  0.00  0.00    +0.000 HD
ATOM     34  H   UNL     1       1.895  10.963 -18.329  0.00  0.00    +0.000 HD
BRANCH  32  35
ATOM     35  C   UNL     1       3.410  11.984 -17.200  0.00  0.00    +0.000 C 
ATOM     36  H   UNL     1       3.875  12.253 -18.155  0.00  0.00    +0.000 HD
ATOM     37  H   UNL     1       3.457  12.874 -16.563  0.00  0.00    +0.000 HD
ATOM     38  H   UNL     1       3.994  11.186 -16.735  0.00  0.00    +0.000 HD
ENDBRANCH  32  35
ENDBRANCH  31  32
ENDBRANCH  30  31
ENDBRANCH  26  30
ENDBRANCH  23  26
ENDBRANCH  20  23
ENDBRANCH   1  20
TORSDOF 12
ENDMDL
MODEL 10
REMARK VINA RESULT:    -4.159     14.117     15.975
REMARK INTER + INTRA:          -7.968
REMARK INTER:                  -6.833
REMARK INTRA:                  -1.135
REMARK UNBOUND:                -1.135
REMARK  Name = 8048
REMARK  12 active torsions:
REMARK  status: ('A' for Active; 'I' for Inactive)
REMARK    1  A    between atoms: O_1  and  C_12
REMARK    2  A    between atoms: O_1  and  C_13
REMARK    3  A    between atoms: C_3  and  C_4
REMARK    4  A    between atoms: C_3  and  C_5
REMARK    5  A    between atoms: C_4  and  C_6
REMARK    6  A    between atoms: C_5  and  C_7
REMARK    7  A    between atoms: C_6  and  C_8
REMARK    8  A    between atoms: C_7  and  C_9
REMARK    9  A    between atoms: C_8  and  C_10
REMARK   10  A    between atoms: C_9  and  C_11
REMARK   11  A    between atoms: C_10  and  C_12
REMARK   12  A    between atoms: C_13  and  C_14
REMARK                            x       y       z     vdW  Elec       q    Type
REMARK                         _______ _______ _______ _____ _____    ______ ____
ROOT
ATOM      1  C   UNL     1      -6.935  12.653   8.474  0.00  0.00    +0.000 C 
ATOM      2  H   UNL     1      -6.584  12.354   9.469  0.00  0.00    +0.000 HD
ATOM      3  H   UNL     1      -6.820  11.785   7.815  0.00  0.00    +0.000 HD
ENDROOT
BRANCH   1   4
ATOM      4  C   UNL     1      -6.076  13.809   7.955  0.00  0.00    +0.000 C 
ATOM      5  H   UNL     1      -6.052  14.614   8.698  0.00  0.00    +0.000 HD
ATOM      6  H   UNL     1      -5.043  13.466   7.815  0.00  0.00    +0.000 HD
BRANCH   4   7
ATOM      7  C   UNL     1      -6.616  14.349   6.630  0.00  0.00    +0.000 C 
ATOM      8  H   UNL     1      -6.224  15.360   6.464  0.00  0.00    +0.000 HD
ATOM      9  H   UNL     1      -7.708  14.441   6.695  0.00  0.00    +0.000 HD
BRANCH   7  10
ATOM     10  C   UNL     1      -6.265  13.471   5.426  0.00  0.00    +0.000 C 
ATOM     11  H   UNL     1      -5.612  12.652   5.755  0.00  0.00    +0.000 HD
ATOM     12  H   UNL     1      -5.687  14.068   4.709  0.00  0.00    +0.000 HD
BRANCH  10  13
ATOM     13  C   UNL     1      -7.490  12.885   4.722  0.00  0.00    +0.000 C 
ATOM     14  H   UNL     1      -7.665  13.414   3.779  0.00  0.00    +0.000 HD
ATOM     15  H   UNL     1      -8.380  13.030   5.345  0.00  0.00    +0.000 HD
BRANCH  13  16
ATOM     16  C   UNL     1      -7.308  11.402   4.436  0.00  0.00    +0.000 C 
ATOM     17  H   UNL     1      -6.537  10.969   5.082  0.00  0.00    +0.000 HD
ATOM     18  H   UNL     1      -7.004  11.252   3.396  0.00  0.00    +0.000 HD
ATOM     19  H   UNL     1      -8.242  10.854   4.599  0.00  0.00    +0.000 HD
ENDBRANCH  13  16
ENDBRANCH  10  13
ENDBRANCH   7  10
ENDBRANCH   4   7
ENDBRANCH   1   4
BRANCH   1  20
ATOM     20  C   UNL     1      -8.411  13.047   8.551  0.00  0.00    +0.000 C 
ATOM     21  H   UNL     1      -8.671  13.303   9.586  0.00  0.00    +0.000 HD
ATOM     22  H   UNL     1      -8.582  13.945   7.944  0.00  0.00    +0.000 HD
BRANCH  20  23
ATOM     23  C   UNL     1      -9.315  11.916   8.062  0.00  0.00    +0.000 C 
ATOM     24  H   UNL     1      -9.980  12.290   7.273  0.00  0.00    +0.000 HD
ATOM     25  H   UNL     1      -9.959  11.584   8.887  0.00  0.00    +0.000 HD
BRANCH  23  26
ATOM     26  C   UNL     1      -8.500  10.740   7.538  0.00  0.00    +0.000 C 
ATOM     27  H   UNL     1      -8.324  10.858   6.463  0.00  0.00    +0.000 HD
ATOM     28  H   UNL     1      -7.536  10.688   8.058  0.00  0.00    +0.000 HD
BRANCH  26  30
ATOM     29  O   UNL     1     -10.416   9.275   7.517  0.00  0.00    +0.000 OA
ATOM     30  C   UNL     1      -9.229   9.441   7.766  0.00  0.00    +0.000 C 
BRANCH  30  31
ATOM     31  O   UNL     1      -8.370   8.505   8.261  0.00  0.00    +0.000 OA
BRANCH  31  32
ATOM     32  C   UNL     1      -7.783   8.816   9.527  0.00  0.00    +0.000 C 
ATOM     33  H   UNL     1      -7.552   9.887   9.570  0.00  0.00    +0.000 HD
ATOM     34  H   UNL     1      -6.860   8.240   9.654  0.00  0.00    +0.000 HD
BRANCH  32  35
ATOM     35  C   UNL     1      -8.762   8.461  10.626  0.00  0.00    +0.000 C 
ATOM     36  H   UNL     1      -9.792   8.517  10.257  0.00  0.00    +0.000 HD
ATOM     37  H   UNL     1      -8.602   7.432  10.966  0.00  0.00    +0.000 HD
ATOM     38  H   UNL     1      -8.655   9.135  11.479  0.00  0.00    +0.000 HD
ENDBRANCH  32  35
ENDBRANCH  31  32
ENDBRANCH  30  31
ENDBRANCH  26  30
ENDBRANCH  23  26
ENDBRANCH  20  23
ENDBRANCH   1  20
TORSDOF 12
ENDMDL
