MODEL 1
REMARK VINA RESULT:    -3.353      0.000      0.000
REMARK INTER + INTRA:          -4.265
REMARK INTER:                  -4.147
REMARK INTRA:                  -0.118
REMARK UNBOUND:                -0.128
REMARK  Name = 7749
REMARK  5 active torsions:
REMARK  status: ('A' for Active; 'I' for Inactive)
REMARK    1  A    between atoms: O_1  and  C_4
REMARK    2  A    between atoms: O_1  and  C_5
REMARK    3  A    between atoms: C_3  and  C_5
REMARK    4  A    between atoms: C_3  and  C_6
REMARK    5  A    between atoms: C_4  and  C_7
REMARK                            x       y       z     vdW  Elec       q    Type
REMARK                         _______ _______ _______ _____ _____    ______ ____
ROOT
ATOM      1  O   UNL     1      -2.982   9.338  -8.267  0.00  0.00    +0.000 OA
ATOM      2  C   UNL     1      -2.853   8.661  -9.277  0.00  0.00    +0.000 C 
ENDROOT
BRANCH   2   3
ATOM      3  C   UNL     1      -3.132   7.179  -9.374  0.00  0.00    +0.000 C 
ATOM      4  H   UNL     1      -2.455   6.653  -8.693  0.00  0.00    +0.000 HD
ATOM      5  H   UNL     1      -4.165   7.000  -9.062  0.00  0.00    +0.000 HD
BRANCH   3   6
ATOM      6  C   UNL     1      -2.935   6.651 -10.785  0.00  0.00    +0.000 C 
ATOM      7  H   UNL     1      -2.761   7.470 -11.491  0.00  0.00    +0.000 HD
ATOM      8  H   UNL     1      -2.074   5.978 -10.824  0.00  0.00    +0.000 HD
ATOM      9  H   UNL     1      -3.818   6.099 -11.125  0.00  0.00    +0.000 HD
ENDBRANCH   3   6
ENDBRANCH   2   3
BRANCH   2  10
ATOM     10  O   UNL     1      -2.437   9.113 -10.497  0.00  0.00    +0.000 OA
BRANCH  10  11
ATOM     11  C   UNL     1      -1.308   9.992 -10.476  0.00  0.00    +0.000 C 
ATOM     12  H   UNL     1      -1.601  10.953 -10.037  0.00  0.00    +0.000 HD
ATOM     13  H   UNL     1      -0.510   9.546  -9.874  0.00  0.00    +0.000 HD
BRANCH  11  14
ATOM     14  C   UNL     1      -0.822  10.205 -11.894  0.00  0.00    +0.000 C 
ATOM     15  H   UNL     1      -1.656  10.439 -12.562  0.00  0.00    +0.000 HD
ATOM     16  H   UNL     1      -0.098  11.025 -11.934  0.00  0.00    +0.000 HD
ATOM     17  H   UNL     1      -0.311   9.311 -12.265  0.00  0.00    +0.000 HD
ENDBRANCH  11  14
ENDBRANCH  10  11
ENDBRANCH   2  10
TORSDOF 5
ENDMDL
MODEL 2
REMARK VINA RESULT:    -3.310      0.874      3.061
REMARK INTER + INTRA:          -4.212
REMARK INTER:                  -4.058
REMARK INTRA:                  -0.153
REMARK UNBOUND:                -0.128
REMARK  Name = 7749
REMARK  5 active torsions:
REMARK  status: ('A' for Active; 'I' for Inactive)
REMARK    1  A    between atoms: O_1  and  C_4
REMARK    2  A    between atoms: O_1  and  C_5
REMARK    3  A    between atoms: C_3  and  C_5
REMARK    4  A    between atoms: C_3  and  C_6
REMARK    5  A    between atoms: C_4  and  C_7
REMARK                            x       y       z     vdW  Elec       q    Type
REMARK                         _______ _______ _______ _____ _____    ______ ____
ROOT
ATOM      1  O   UNL     1      -2.835   9.393  -8.620  0.00  0.00    +0.000 OA
ATOM      2  C   UNL     1      -2.224   9.102  -9.638  0.00  0.00    +0.000 C 
ENDROOT
BRANCH   2   3
ATOM      3  C   UNL     1      -1.337  10.042 -10.421  0.00  0.00    +0.000 C 
ATOM      4  H   UNL     1      -1.919  10.934 -10.678  0.00  0.00    +0.000 HD
ATOM      5  H   UNL     1      -0.495  10.333  -9.786  0.00  0.00    +0.000 HD
BRANCH   3   6
ATOM      6  C   UNL     1      -0.809   9.404 -11.694  0.00  0.00    +0.000 C 
ATOM      7  H   UNL     1      -0.102  10.067 -12.203  0.00  0.00    +0.000 HD
ATOM      8  H   UNL     1      -0.295   8.466 -11.467  0.00  0.00    +0.000 HD
ATOM      9  H   UNL     1      -1.625   9.187 -12.393  0.00  0.00    +0.000 HD
ENDBRANCH   3   6
ENDBRANCH   2   3
BRANCH   2  10
ATOM     10  O   UNL     1      -2.227   7.882 -10.254  0.00  0.00    +0.000 OA
BRANCH  10  11
ATOM     11  C   UNL     1      -3.235   6.970  -9.809  0.00  0.00    +0.000 C 
ATOM     12  H   UNL     1      -2.785   5.986  -9.633  0.00  0.00    +0.000 HD
ATOM     13  H   UNL     1      -3.675   7.339  -8.877  0.00  0.00    +0.000 HD
BRANCH  11  14
ATOM     14  C   UNL     1      -4.305   6.859 -10.873  0.00  0.00    +0.000 C 
ATOM     15  H   UNL     1      -5.287   7.120 -10.469  0.00  0.00    +0.000 HD
ATOM     16  H   UNL     1      -4.082   7.524 -11.714  0.00  0.00    +0.000 HD
ATOM     17  H   UNL     1      -4.346   5.842 -11.275  0.00  0.00    +0.000 HD
ENDBRANCH  11  14
ENDBRANCH  10  11
ENDBRANCH   2  10
TORSDOF 5
ENDMDL
MODEL 3
REMARK VINA RESULT:    -3.215      1.693      2.335
REMARK INTER + INTRA:          -4.095
REMARK INTER:                  -3.903
REMARK INTRA:                  -0.191
REMARK UNBOUND:                -0.128
REMARK  Name = 7749
REMARK  5 active torsions:
REMARK  status: ('A' for Active; 'I' for Inactive)
REMARK    1  A    between atoms: O_1  and  C_4
REMARK    2  A    between atoms: O_1  and  C_5
REMARK    3  A    between atoms: C_3  and  C_5
REMARK    4  A    between atoms: C_3  and  C_6
REMARK    5  A    between atoms: C_4  and  C_7
REMARK                            x       y       z     vdW  Elec       q    Type
REMARK                         _______ _______ _______ _____ _____    ______ ____
ROOT
ATOM      1  O   UNL     1      -1.485   6.646 -11.578  0.00  0.00    +0.000 OA
ATOM      2  C   UNL     1      -2.485   7.299 -11.315  0.00  0.00    +0.000 C 
ENDROOT
BRANCH   2   3
ATOM      3  C   UNL     1      -3.665   6.801 -10.514  0.00  0.00    +0.000 C 
ATOM      4  H   UNL     1      -4.526   7.443 -10.728  0.00  0.00    +0.000 HD
ATOM      5  H   UNL     1      -3.893   5.779 -10.831  0.00  0.00    +0.000 HD
BRANCH   3   6
ATOM      6  C   UNL     1      -3.389   6.814  -9.020  0.00  0.00    +0.000 C 
ATOM      7  H   UNL     1      -4.323   6.806  -8.448  0.00  0.00    +0.000 HD
ATOM      8  H   UNL     1      -2.805   5.935  -8.732  0.00  0.00    +0.000 HD
ATOM      9  H   UNL     1      -2.828   7.709  -8.732  0.00  0.00    +0.000 HD
ENDBRANCH   3   6
ENDBRANCH   2   3
BRANCH   2  10
ATOM     10  O   UNL     1      -2.721   8.591 -11.693  0.00  0.00    +0.000 OA
BRANCH  10  11
ATOM     11  C   UNL     1      -1.575   9.448 -11.706  0.00  0.00    +0.000 C 
ATOM     12  H   UNL     1      -0.700   8.883 -12.048  0.00  0.00    +0.000 HD
ATOM     13  H   UNL     1      -1.755  10.286 -12.387  0.00  0.00    +0.000 HD
BRANCH  11  14
ATOM     14  C   UNL     1      -1.331   9.967 -10.305  0.00  0.00    +0.000 C 
ATOM     15  H   UNL     1      -2.192  10.538  -9.945  0.00  0.00    +0.000 HD
ATOM     16  H   UNL     1      -1.144   9.139  -9.615  0.00  0.00    +0.000 HD
ATOM     17  H   UNL     1      -0.445  10.610 -10.281  0.00  0.00    +0.000 HD
ENDBRANCH  11  14
ENDBRANCH  10  11
ENDBRANCH   2  10
TORSDOF 5
ENDMDL
MODEL 4
REMARK VINA RESULT:    -3.133     31.662     32.740
REMARK INTER + INTRA:          -3.993
REMARK INTER:                  -3.887
REMARK INTRA:                  -0.106
REMARK UNBOUND:                -0.128
REMARK  Name = 7749
REMARK  5 active torsions:
REMARK  status: ('A' for Active; 'I' for Inactive)
REMARK    1  A    between atoms: O_1  and  C_4
REMARK    2  A    between atoms: O_1  and  C_5
REMARK    3  A    between atoms: C_3  and  C_5
REMARK    4  A    between atoms: C_3  and  C_6
REMARK    5  A    between atoms: C_4  and  C_7
REMARK                            x       y       z     vdW  Elec       q    Type
REMARK                         _______ _______ _______ _____ _____    ______ ____
ROOT
ATOM      1  O   UNL     1      -8.867 -10.205  13.338  0.00  0.00    +0.000 OA
ATOM      2  C   UNL     1      -9.243 -10.431  14.480  0.00  0.00    +0.000 C 
ENDROOT
BRANCH   2   3
ATOM      3  C   UNL     1      -8.851 -11.635  15.304  0.00  0.00    +0.000 C 
ATOM      4  H   UNL     1      -9.489 -11.669  16.193  0.00  0.00    +0.000 HD
ATOM      5  H   UNL     1      -9.022 -12.535  14.705  0.00  0.00    +0.000 HD
BRANCH   3   6
ATOM      6  C   UNL     1      -7.395 -11.586  15.732  0.00  0.00    +0.000 C 
ATOM      7  H   UNL     1      -7.063 -10.553  15.879  0.00  0.00    +0.000 HD
ATOM      8  H   UNL     1      -7.254 -12.128  16.671  0.00  0.00    +0.000 HD
ATOM      9  H   UNL     1      -6.747 -12.040  14.974  0.00  0.00    +0.000 HD
ENDBRANCH   3   6
ENDBRANCH   2   3
BRANCH   2  10
ATOM     10  O   UNL     1     -10.080  -9.644  15.218  0.00  0.00    +0.000 OA
BRANCH  10  11
ATOM     11  C   UNL     1     -10.931 -10.339  16.135  0.00  0.00    +0.000 C 
ATOM     12  H   UNL     1     -11.048 -11.378  15.809  0.00  0.00    +0.000 HD
ATOM     13  H   UNL     1     -10.482 -10.319  17.134  0.00  0.00    +0.000 HD
BRANCH  11  14
ATOM     14  C   UNL     1     -12.283  -9.658  16.167  0.00  0.00    +0.000 C 
ATOM     15  H   UNL     1     -12.172  -8.570  16.184  0.00  0.00    +0.000 HD
ATOM     16  H   UNL     1     -12.875  -9.938  15.291  0.00  0.00    +0.000 HD
ATOM     17  H   UNL     1     -12.851  -9.971  17.049  0.00  0.00    +0.000 HD
ENDBRANCH  11  14
ENDBRANCH  10  11
ENDBRANCH   2  10
TORSDOF 5
ENDMDL
MODEL 5
REMARK VINA RESULT:    -3.118     26.824     28.377
REMARK INTER + INTRA:          -3.975
REMARK INTER:                  -3.900
REMARK INTRA:                  -0.075
REMARK UNBOUND:                -0.128
REMARK  Name = 7749
REMARK  5 active torsions:
REMARK  status: ('A' for Active; 'I' for Inactive)
REMARK    1  A    between atoms: O_1  and  C_4
REMARK    2  A    between atoms: O_1  and  C_5
REMARK    3  A    between atoms: C_3  and  C_5
REMARK    4  A    between atoms: C_3  and  C_6
REMARK    5  A    between atoms: C_4  and  C_7
REMARK                            x       y       z     vdW  Elec       q    Type
REMARK                         _______ _______ _______ _____ _____    ______ ____
ROOT
ATOM      1  O   UNL     1     -21.541  -2.638   7.966  0.00  0.00    +0.000 OA
ATOM      2  C   UNL     1     -21.291  -1.449   7.819  0.00  0.00    +0.000 C 
ENDROOT
BRANCH   2   3
ATOM      3  C   UNL     1     -20.252  -0.889   6.876  0.00  0.00    +0.000 C 
ATOM      4  H   UNL     1     -20.065   0.156   7.148  0.00  0.00    +0.000 HD
ATOM      5  H   UNL     1     -19.328  -1.462   6.998  0.00  0.00    +0.000 HD
BRANCH   3   6
ATOM      6  C   UNL     1     -20.698  -0.958   5.426  0.00  0.00    +0.000 C 
ATOM      7  H   UNL     1     -20.365  -1.889   4.956  0.00  0.00    +0.000 HD
ATOM      8  H   UNL     1     -21.789  -0.913   5.360  0.00  0.00    +0.000 HD
ATOM      9  H   UNL     1     -20.285  -0.125   4.847  0.00  0.00    +0.000 HD
ENDBRANCH   3   6
ENDBRANCH   2   3
BRANCH   2  10
ATOM     10  O   UNL     1     -21.898  -0.415   8.474  0.00  0.00    +0.000 OA
BRANCH  10  11
ATOM     11  C   UNL     1     -22.999  -0.778   9.312  0.00  0.00    +0.000 C 
ATOM     12  H   UNL     1     -22.865  -1.806   9.666  0.00  0.00    +0.000 HD
ATOM     13  H   UNL     1     -23.042  -0.100  10.171  0.00  0.00    +0.000 HD
BRANCH  11  14
ATOM     14  C   UNL     1     -24.281  -0.676   8.513  0.00  0.00    +0.000 C 
ATOM     15  H   UNL     1     -24.143  -0.043   7.632  0.00  0.00    +0.000 HD
ATOM     16  H   UNL     1     -24.612  -1.667   8.188  0.00  0.00    +0.000 HD
ATOM     17  H   UNL     1     -25.086  -0.258   9.127  0.00  0.00    +0.000 HD
ENDBRANCH  11  14
ENDBRANCH  10  11
ENDBRANCH   2  10
TORSDOF 5
ENDMDL
MODEL 6
REMARK VINA RESULT:    -3.094     25.942     26.504
REMARK INTER + INTRA:          -3.945
REMARK INTER:                  -3.823
REMARK INTRA:                  -0.122
REMARK UNBOUND:                -0.128
REMARK  Name = 7749
REMARK  5 active torsions:
REMARK  status: ('A' for Active; 'I' for Inactive)
REMARK    1  A    between atoms: O_1  and  C_4
REMARK    2  A    between atoms: O_1  and  C_5
REMARK    3  A    between atoms: C_3  and  C_5
REMARK    4  A    between atoms: C_3  and  C_6
REMARK    5  A    between atoms: C_4  and  C_7
REMARK                            x       y       z     vdW  Elec       q    Type
REMARK                         _______ _______ _______ _____ _____    ______ ____
ROOT
ATOM      1  O   UNL     1     -21.289  -1.795   3.717  0.00  0.00    +0.000 OA
ATOM      2  C   UNL     1     -20.870  -1.840   4.865  0.00  0.00    +0.000 C 
ENDROOT
BRANCH   2   3
ATOM      3  C   UNL     1     -20.617  -0.639   5.747  0.00  0.00    +0.000 C 
ATOM      4  H   UNL     1     -19.794  -0.059   5.316  0.00  0.00    +0.000 HD
ATOM      5  H   UNL     1     -21.521  -0.022   5.761  0.00  0.00    +0.000 HD
BRANCH   3   6
ATOM      6  C   UNL     1     -20.260  -1.038   7.168  0.00  0.00    +0.000 C 
ATOM      7  H   UNL     1     -20.476  -0.226   7.871  0.00  0.00    +0.000 HD
ATOM      8  H   UNL     1     -20.834  -1.917   7.474  0.00  0.00    +0.000 HD
ATOM      9  H   UNL     1     -19.194  -1.278   7.253  0.00  0.00    +0.000 HD
ENDBRANCH   3   6
ENDBRANCH   2   3
BRANCH   2  10
ATOM     10  O   UNL     1     -20.555  -2.972   5.561  0.00  0.00    +0.000 OA
BRANCH  10  11
ATOM     11  C   UNL     1     -20.816  -4.205   4.882  0.00  0.00    +0.000 C 
ATOM     12  H   UNL     1     -21.488  -4.822   5.490  0.00  0.00    +0.000 HD
ATOM     13  H   UNL     1     -21.288  -3.996   3.916  0.00  0.00    +0.000 HD
BRANCH  11  14
ATOM     14  C   UNL     1     -19.508  -4.935   4.666  0.00  0.00    +0.000 C 
ATOM     15  H   UNL     1     -19.497  -5.438   3.695  0.00  0.00    +0.000 HD
ATOM     16  H   UNL     1     -18.665  -4.238   4.711  0.00  0.00    +0.000 HD
ATOM     17  H   UNL     1     -19.347  -5.680   5.452  0.00  0.00    +0.000 HD
ENDBRANCH  11  14
ENDBRANCH  10  11
ENDBRANCH   2  10
TORSDOF 5
ENDMDL
MODEL 7
REMARK VINA RESULT:    -3.008     32.093     33.616
REMARK INTER + INTRA:          -3.839
REMARK INTER:                  -3.689
REMARK INTRA:                  -0.150
REMARK UNBOUND:                -0.128
REMARK  Name = 7749
REMARK  5 active torsions:
REMARK  status: ('A' for Active; 'I' for Inactive)
REMARK    1  A    between atoms: O_1  and  C_4
REMARK    2  A    between atoms: O_1  and  C_5
REMARK    3  A    between atoms: C_3  and  C_5
REMARK    4  A    between atoms: C_3  and  C_6
REMARK    5  A    between atoms: C_4  and  C_7
REMARK                            x       y       z     vdW  Elec       q    Type
REMARK                         _______ _______ _______ _____ _____    ______ ____
ROOT
ATOM      1  O   UNL     1     -12.552  -3.975  18.448  0.00  0.00    +0.000 OA
ATOM      2  C   UNL     1     -13.167  -5.031  18.486  0.00  0.00    +0.000 C 
ENDROOT
BRANCH   2   3
ATOM      3  C   UNL     1     -14.325  -5.333  19.409  0.00  0.00    +0.000 C 
ATOM      4  H   UNL     1     -14.745  -4.384  19.759  0.00  0.00    +0.000 HD
ATOM      5  H   UNL     1     -15.088  -5.875  18.842  0.00  0.00    +0.000 HD
BRANCH   3   6
ATOM      6  C   UNL     1     -13.901  -6.166  20.605  0.00  0.00    +0.000 C 
ATOM      7  H   UNL     1     -14.611  -6.980  20.790  0.00  0.00    +0.000 HD
ATOM      8  H   UNL     1     -12.914  -6.606  20.434  0.00  0.00    +0.000 HD
ATOM      9  H   UNL     1     -13.851  -5.555  21.513  0.00  0.00    +0.000 HD
ENDBRANCH   3   6
ENDBRANCH   2   3
BRANCH   2  10
ATOM     10  O   UNL     1     -12.926  -6.128  17.707  0.00  0.00    +0.000 OA
BRANCH  10  11
ATOM     11  C   UNL     1     -13.961  -6.465  16.780  0.00  0.00    +0.000 C 
ATOM     12  H   UNL     1     -13.890  -7.528  16.522  0.00  0.00    +0.000 HD
ATOM     13  H   UNL     1     -14.937  -6.266  17.234  0.00  0.00    +0.000 HD
BRANCH  11  14
ATOM     14  C   UNL     1     -13.797  -5.625  15.531  0.00  0.00    +0.000 C 
ATOM     15  H   UNL     1     -14.175  -4.611  15.689  0.00  0.00    +0.000 HD
ATOM     16  H   UNL     1     -12.743  -5.567  15.242  0.00  0.00    +0.000 HD
ATOM     17  H   UNL     1     -14.334  -6.076  14.689  0.00  0.00    +0.000 HD
ENDBRANCH  11  14
ENDBRANCH  10  11
ENDBRANCH   2  10
TORSDOF 5
ENDMDL
MODEL 8
REMARK VINA RESULT:    -3.005      1.688      3.141
REMARK INTER + INTRA:          -3.836
REMARK INTER:                  -3.687
REMARK INTRA:                  -0.148
REMARK UNBOUND:                -0.128
REMARK  Name = 7749
REMARK  5 active torsions:
REMARK  status: ('A' for Active; 'I' for Inactive)
REMARK    1  A    between atoms: O_1  and  C_4
REMARK    2  A    between atoms: O_1  and  C_5
REMARK    3  A    between atoms: C_3  and  C_5
REMARK    4  A    between atoms: C_3  and  C_6
REMARK    5  A    between atoms: C_4  and  C_7
REMARK                            x       y       z     vdW  Elec       q    Type
REMARK                         _______ _______ _______ _____ _____    ______ ____
ROOT
ATOM      1  O   UNL     1      -1.818  10.174 -12.780  0.00  0.00    +0.000 OA
ATOM      2  C   UNL     1      -1.350   9.409 -11.948  0.00  0.00    +0.000 C 
ENDROOT
BRANCH   2   3
ATOM      3  C   UNL     1      -0.679   8.091 -12.256  0.00  0.00    +0.000 C 
ATOM      4  H   UNL     1      -0.519   8.027 -13.338  0.00  0.00    +0.000 HD
ATOM      5  H   UNL     1       0.290   8.069 -11.748  0.00  0.00    +0.000 HD
BRANCH   3   6
ATOM      6  C   UNL     1      -1.511   6.905 -11.801  0.00  0.00    +0.000 C 
ATOM      7  H   UNL     1      -1.289   6.644 -10.761  0.00  0.00    +0.000 HD
ATOM      8  H   UNL     1      -2.578   7.136 -11.876  0.00  0.00    +0.000 HD
ATOM      9  H   UNL     1      -1.308   6.022 -12.418  0.00  0.00    +0.000 HD
ENDBRANCH   3   6
ENDBRANCH   2   3
BRANCH   2  10
ATOM     10  O   UNL     1      -1.346   9.602 -10.595  0.00  0.00    +0.000 OA
BRANCH  10  11
ATOM     11  C   UNL     1      -2.618   9.899 -10.012  0.00  0.00    +0.000 C 
ATOM     12  H   UNL     1      -2.656  10.960  -9.739  0.00  0.00    +0.000 HD
ATOM     13  H   UNL     1      -3.411   9.681 -10.734  0.00  0.00    +0.000 HD
BRANCH  11  14
ATOM     14  C   UNL     1      -2.804   9.047  -8.774  0.00  0.00    +0.000 C 
ATOM     15  H   UNL     1      -2.749   7.983  -9.021  0.00  0.00    +0.000 HD
ATOM     16  H   UNL     1      -2.035   9.276  -8.030  0.00  0.00    +0.000 HD
ATOM     17  H   UNL     1      -3.772   9.253  -8.306  0.00  0.00    +0.000 HD
ENDBRANCH  11  14
ENDBRANCH  10  11
ENDBRANCH   2  10
TORSDOF 5
ENDMDL
MODEL 9
REMARK VINA RESULT:    -2.908      2.160      3.117
REMARK INTER + INTRA:          -3.716
REMARK INTER:                  -3.676
REMARK INTRA:                  -0.040
REMARK UNBOUND:                -0.128
REMARK  Name = 7749
REMARK  5 active torsions:
REMARK  status: ('A' for Active; 'I' for Inactive)
REMARK    1  A    between atoms: O_1  and  C_4
REMARK    2  A    between atoms: O_1  and  C_5
REMARK    3  A    between atoms: C_3  and  C_5
REMARK    4  A    between atoms: C_3  and  C_6
REMARK    5  A    between atoms: C_4  and  C_7
REMARK                            x       y       z     vdW  Elec       q    Type
REMARK                         _______ _______ _______ _____ _____    ______ ____
ROOT
ATOM      1  O   UNL     1      -1.793   7.731 -11.367  0.00  0.00    +0.000 OA
ATOM      2  C   UNL     1      -1.320   8.858 -11.323  0.00  0.00    +0.000 C 
ENDROOT
BRANCH   2   3
ATOM      3  C   UNL     1      -1.626   9.890 -10.262  0.00  0.00    +0.000 C 
ATOM      4  H   UNL     1      -0.680  10.235  -9.830  0.00  0.00    +0.000 HD
ATOM      5  H   UNL     1      -2.133  10.735 -10.737  0.00  0.00    +0.000 HD
BRANCH   3   6
ATOM      6  C   UNL     1      -2.507   9.332  -9.158  0.00  0.00    +0.000 C 
ATOM      7  H   UNL     1      -2.293   9.817  -8.200  0.00  0.00    +0.000 HD
ATOM      8  H   UNL     1      -3.563   9.492  -9.394  0.00  0.00    +0.000 HD
ATOM      9  H   UNL     1      -2.344   8.256  -9.031  0.00  0.00    +0.000 HD
ENDBRANCH   3   6
ENDBRANCH   2   3
BRANCH   2  10
ATOM     10  O   UNL     1      -0.434   9.392 -12.216  0.00  0.00    +0.000 OA
BRANCH  10  11
ATOM     11  C   UNL     1      -0.224   8.627 -13.407  0.00  0.00    +0.000 C 
ATOM     12  H   UNL     1       0.322   7.709 -13.160  0.00  0.00    +0.000 HD
ATOM     13  H   UNL     1      -1.192   8.367 -13.849  0.00  0.00    +0.000 HD
BRANCH  11  14
ATOM     14  C   UNL     1       0.582   9.452 -14.387  0.00  0.00    +0.000 C 
ATOM     15  H   UNL     1       0.731  10.469 -14.012  0.00  0.00    +0.000 HD
ATOM     16  H   UNL     1       1.560   8.994 -14.563  0.00  0.00    +0.000 HD
ATOM     17  H   UNL     1       0.075   9.503 -15.356  0.00  0.00    +0.000 HD
ENDBRANCH  11  14
ENDBRANCH  10  11
ENDBRANCH   2  10
TORSDOF 5
ENDMDL
MODEL 10
REMARK VINA RESULT:    -2.885     16.751     18.133
REMARK INTER + INTRA:          -3.688
REMARK INTER:                  -3.560
REMARK INTRA:                  -0.128
REMARK UNBOUND:                -0.128
REMARK  Name = 7749
REMARK  5 active torsions:
REMARK  status: ('A' for Active; 'I' for Inactive)
REMARK    1  A    between atoms: O_1  and  C_4
REMARK    2  A    between atoms: O_1  and  C_5
REMARK    3  A    between atoms: C_3  and  C_5
REMARK    4  A    between atoms: C_3  and  C_6
REMARK    5  A    between atoms: C_4  and  C_7
REMARK                            x       y       z     vdW  Elec       q    Type
REMARK                         _______ _______ _______ _____ _____    ______ ____
ROOT
ATOM      1  O   UNL     1      -7.899  12.419   7.811  0.00  0.00    +0.000 OA
ATOM      2  C   UNL     1      -7.985  11.860   6.727  0.00  0.00    +0.000 C 
ENDROOT
BRANCH   2   3
ATOM      3  C   UNL     1      -7.389  12.368   5.434  0.00  0.00    +0.000 C 
ATOM      4  H   UNL     1      -8.002  13.202   5.074  0.00  0.00    +0.000 HD
ATOM      5  H   UNL     1      -6.376  12.728   5.638  0.00  0.00    +0.000 HD
BRANCH   3   6
ATOM      6  C   UNL     1      -7.334  11.289   4.367  0.00  0.00    +0.000 C 
ATOM      7  H   UNL     1      -6.503  11.463   3.675  0.00  0.00    +0.000 HD
ATOM      8  H   UNL     1      -7.197  10.305   4.825  0.00  0.00    +0.000 HD
ATOM      9  H   UNL     1      -8.258  11.269   3.780  0.00  0.00    +0.000 HD
ENDBRANCH   3   6
ENDBRANCH   2   3
BRANCH   2  10
ATOM     10  O   UNL     1      -8.630  10.681   6.482  0.00  0.00    +0.000 OA
BRANCH  10  11
ATOM     11  C   UNL     1      -9.315  10.109   7.601  0.00  0.00    +0.000 C 
ATOM     12  H   UNL     1      -9.444  10.871   8.378  0.00  0.00    +0.000 HD
ATOM     13  H   UNL     1     -10.297   9.747   7.281  0.00  0.00    +0.000 HD
BRANCH  11  14
ATOM     14  C   UNL     1      -8.496   8.958   8.145  0.00  0.00    +0.000 C 
ATOM     15  H   UNL     1      -8.305   9.086   9.215  0.00  0.00    +0.000 HD
ATOM     16  H   UNL     1      -9.017   8.008   7.991  0.00  0.00    +0.000 HD
ATOM     17  H   UNL     1      -7.538   8.885   7.621  0.00  0.00    +0.000 HD
ENDBRANCH  11  14
ENDBRANCH  10  11
ENDBRANCH   2  10
TORSDOF 5
ENDMDL
