MODEL 1
REMARK VINA RESULT:    -5.263      0.000      0.000
REMARK INTER + INTRA:          -7.028
REMARK INTER:                  -6.576
REMARK INTRA:                  -0.452
REMARK UNBOUND:                -0.534
REMARK  Name = 6877
REMARK  5 active torsions:
REMARK  status: ('A' for Active; 'I' for Inactive)
REMARK    1  A    between atoms: O_1  and  C_8
REMARK    2  A    between atoms: O_1  and  C_10
REMARK    3  A    between atoms: N_3  and  C_5
REMARK    4  A    between atoms: C_4  and  C_8
REMARK    5  A    between atoms: C_10  and  C_12
REMARK                            x       y       z     vdW  Elec       q    Type
REMARK                         _______ _______ _______ _____ _____    ______ ____
ROOT
ATOM      1  C   UNL     1      -9.947   6.087  -5.372  0.00  0.00    +0.000 A 
ATOM      2  C   UNL     1      -8.654   5.750  -4.970  0.00  0.00    +0.000 A 
ATOM      3  C   UNL     1     -10.902   5.088  -5.558  0.00  0.00    +0.000 A 
ATOM      4  C   UNL     1      -8.317   4.414  -4.753  0.00  0.00    +0.000 A 
ATOM      5  C   UNL     1     -10.564   3.752  -5.343  0.00  0.00    +0.000 A 
ATOM      6  C   UNL     1      -9.273   3.414  -4.940  0.00  0.00    +0.000 A 
ATOM      7  H   UNL     1     -11.922   5.317  -5.858  0.00  0.00    +0.000 HD
ATOM      8  H   UNL     1      -7.315   4.138  -4.439  0.00  0.00    +0.000 HD
ATOM      9  H   UNL     1     -11.310   2.975  -5.485  0.00  0.00    +0.000 HD
ATOM     10  H   UNL     1      -9.011   2.374  -4.771  0.00  0.00    +0.000 HD
ENDROOT
BRANCH   2  11
ATOM     11  N   UNL     1      -7.672   6.747  -4.775  0.00  0.00    +0.000 N 
ATOM     12  H   UNL     1      -7.920   7.655  -4.408  0.00  0.00    +0.000 HD
ATOM     13  H   UNL     1      -6.709   6.555  -5.018  0.00  0.00    +0.000 HD
ENDBRANCH   2  11
BRANCH   1  15
ATOM     14  O   UNL     1     -11.272   8.041  -5.042  0.00  0.00    +0.000 OA
ATOM     15  C   UNL     1     -10.330   7.474  -5.606  0.00  0.00    +0.000 C 
BRANCH  15  16
ATOM     16  O   UNL     1      -9.515   8.069  -6.529  0.00  0.00    +0.000 OA
BRANCH  16  17
ATOM     17  C   UNL     1      -9.942   8.015  -7.895  0.00  0.00    +0.000 C 
ATOM     18  H   UNL     1      -9.106   7.692  -8.524  0.00  0.00    +0.000 HD
ATOM     19  H   UNL     1     -10.767   7.301  -7.991  0.00  0.00    +0.000 HD
BRANCH  17  20
ATOM     20  C   UNL     1     -10.403   9.393  -8.320  0.00  0.00    +0.000 C 
ATOM     21  H   UNL     1     -10.406  10.084  -7.472  0.00  0.00    +0.000 HD
ATOM     22  H   UNL     1      -9.748   9.794  -9.101  0.00  0.00    +0.000 HD
ATOM     23  H   UNL     1     -11.412   9.348  -8.744  0.00  0.00    +0.000 HD
ENDBRANCH  17  20
ENDBRANCH  16  17
ENDBRANCH  15  16
ENDBRANCH   1  15
TORSDOF 5
ENDMDL
MODEL 2
REMARK VINA RESULT:    -5.136      9.026     10.099
REMARK INTER + INTRA:          -6.871
REMARK INTER:                  -6.593
REMARK INTRA:                  -0.278
REMARK UNBOUND:                -0.534
REMARK  Name = 6877
REMARK  5 active torsions:
REMARK  status: ('A' for Active; 'I' for Inactive)
REMARK    1  A    between atoms: O_1  and  C_8
REMARK    2  A    between atoms: O_1  and  C_10
REMARK    3  A    between atoms: N_3  and  C_5
REMARK    4  A    between atoms: C_4  and  C_8
REMARK    5  A    between atoms: C_10  and  C_12
REMARK                            x       y       z     vdW  Elec       q    Type
REMARK                         _______ _______ _______ _____ _____    ______ ____
ROOT
ATOM      1  C   UNL     1      -1.793   7.940 -11.007  0.00  0.00    +0.000 A 
ATOM      2  C   UNL     1      -1.713   9.123 -10.272  0.00  0.00    +0.000 A 
ATOM      3  C   UNL     1      -2.579   6.885 -10.547  0.00  0.00    +0.000 A 
ATOM      4  C   UNL     1      -2.422   9.251  -9.078  0.00  0.00    +0.000 A 
ATOM      5  C   UNL     1      -3.287   7.012  -9.351  0.00  0.00    +0.000 A 
ATOM      6  C   UNL     1      -3.209   8.195  -8.617  0.00  0.00    +0.000 A 
ATOM      7  H   UNL     1      -2.674   5.954 -11.101  0.00  0.00    +0.000 HD
ATOM      8  H   UNL     1      -2.369  10.167  -8.496  0.00  0.00    +0.000 HD
ATOM      9  H   UNL     1      -3.902   6.191  -8.995  0.00  0.00    +0.000 HD
ATOM     10  H   UNL     1      -3.760   8.295  -7.687  0.00  0.00    +0.000 HD
ENDROOT
BRANCH   2  11
ATOM     11  N   UNL     1      -0.922  10.205 -10.722  0.00  0.00    +0.000 N 
ATOM     12  H   UNL     1      -0.237  10.633 -10.116  0.00  0.00    +0.000 HD
ATOM     13  H   UNL     1      -1.052  10.565 -11.658  0.00  0.00    +0.000 HD
ENDBRANCH   2  11
BRANCH   1  15
ATOM     14  O   UNL     1      -0.103   8.472 -12.604  0.00  0.00    +0.000 OA
ATOM     15  C   UNL     1      -1.065   7.775 -12.260  0.00  0.00    +0.000 C 
BRANCH  15  16
ATOM     16  O   UNL     1      -1.580   6.752 -13.006  0.00  0.00    +0.000 OA
BRANCH  16  17
ATOM     17  C   UNL     1      -2.191   7.108 -14.251  0.00  0.00    +0.000 C 
ATOM     18  H   UNL     1      -2.405   8.182 -14.256  0.00  0.00    +0.000 HD
ATOM     19  H   UNL     1      -1.509   6.868 -15.073  0.00  0.00    +0.000 HD
BRANCH  17  20
ATOM     20  C   UNL     1      -3.478   6.327 -14.408  0.00  0.00    +0.000 C 
ATOM     21  H   UNL     1      -3.998   6.611 -15.328  0.00  0.00    +0.000 HD
ATOM     22  H   UNL     1      -3.276   5.251 -14.434  0.00  0.00    +0.000 HD
ATOM     23  H   UNL     1      -4.144   6.505 -13.557  0.00  0.00    +0.000 HD
ENDBRANCH  17  20
ENDBRANCH  16  17
ENDBRANCH  15  16
ENDBRANCH   1  15
TORSDOF 5
ENDMDL
MODEL 3
REMARK VINA RESULT:    -4.780      8.950     10.087
REMARK INTER + INTRA:          -6.432
REMARK INTER:                  -5.980
REMARK INTRA:                  -0.452
REMARK UNBOUND:                -0.534
REMARK  Name = 6877
REMARK  5 active torsions:
REMARK  status: ('A' for Active; 'I' for Inactive)
REMARK    1  A    between atoms: O_1  and  C_8
REMARK    2  A    between atoms: O_1  and  C_10
REMARK    3  A    between atoms: N_3  and  C_5
REMARK    4  A    between atoms: C_4  and  C_8
REMARK    5  A    between atoms: C_10  and  C_12
REMARK                            x       y       z     vdW  Elec       q    Type
REMARK                         _______ _______ _______ _____ _____    ______ ____
ROOT
ATOM      1  C   UNL     1      -2.640   9.010 -11.150  0.00  0.00    +0.000 A 
ATOM      2  C   UNL     1      -2.996   7.661 -11.133  0.00  0.00    +0.000 A 
ATOM      3  C   UNL     1      -2.573   9.728  -9.956  0.00  0.00    +0.000 A 
ATOM      4  C   UNL     1      -3.283   7.030  -9.923  0.00  0.00    +0.000 A 
ATOM      5  C   UNL     1      -2.862   9.097  -8.746  0.00  0.00    +0.000 A 
ATOM      6  C   UNL     1      -3.216   7.749  -8.729  0.00  0.00    +0.000 A 
ATOM      7  H   UNL     1      -2.286  10.777  -9.931  0.00  0.00    +0.000 HD
ATOM      8  H   UNL     1      -3.561   5.980  -9.896  0.00  0.00    +0.000 HD
ATOM      9  H   UNL     1      -2.806   9.656  -7.816  0.00  0.00    +0.000 HD
ATOM     10  H   UNL     1      -3.440   7.257  -7.786  0.00  0.00    +0.000 HD
ENDROOT
BRANCH   2  11
ATOM     11  N   UNL     1      -3.069   6.916 -12.332  0.00  0.00    +0.000 N 
ATOM     12  H   UNL     1      -3.949   6.793 -12.813  0.00  0.00    +0.000 HD
ATOM     13  H   UNL     1      -2.233   6.488 -12.707  0.00  0.00    +0.000 HD
ENDBRANCH   2  11
BRANCH   1  15
ATOM     14  O   UNL     1      -3.164   9.945 -13.280  0.00  0.00    +0.000 OA
ATOM     15  C   UNL     1      -2.334   9.698 -12.398  0.00  0.00    +0.000 C 
BRANCH  15  16
ATOM     16  O   UNL     1      -1.011  10.037 -12.470  0.00  0.00    +0.000 OA
BRANCH  16  17
ATOM     17  C   UNL     1      -0.096   8.991 -12.816  0.00  0.00    +0.000 C 
ATOM     18  H   UNL     1       0.809   9.085 -12.206  0.00  0.00    +0.000 HD
ATOM     19  H   UNL     1      -0.565   8.020 -12.626  0.00  0.00    +0.000 HD
BRANCH  17  20
ATOM     20  C   UNL     1       0.258   9.112 -14.283  0.00  0.00    +0.000 C 
ATOM     21  H   UNL     1       1.090   8.450 -14.540  0.00  0.00    +0.000 HD
ATOM     22  H   UNL     1      -0.603   8.858 -14.909  0.00  0.00    +0.000 HD
ATOM     23  H   UNL     1       0.536  10.142 -14.528  0.00  0.00    +0.000 HD
ENDBRANCH  17  20
ENDBRANCH  16  17
ENDBRANCH  15  16
ENDBRANCH   1  15
TORSDOF 5
ENDMDL
MODEL 4
REMARK VINA RESULT:    -4.745     13.499     14.583
REMARK INTER + INTRA:          -6.390
REMARK INTER:                  -5.865
REMARK INTRA:                  -0.525
REMARK UNBOUND:                -0.534
REMARK  Name = 6877
REMARK  5 active torsions:
REMARK  status: ('A' for Active; 'I' for Inactive)
REMARK    1  A    between atoms: O_1  and  C_8
REMARK    2  A    between atoms: O_1  and  C_10
REMARK    3  A    between atoms: N_3  and  C_5
REMARK    4  A    between atoms: C_4  and  C_8
REMARK    5  A    between atoms: C_10  and  C_12
REMARK                            x       y       z     vdW  Elec       q    Type
REMARK                         _______ _______ _______ _____ _____    ______ ____
ROOT
ATOM      1  C   UNL     1      -8.266  11.269   6.805  0.00  0.00    +0.000 A 
ATOM      2  C   UNL     1      -7.691  12.472   7.218  0.00  0.00    +0.000 A 
ATOM      3  C   UNL     1      -8.116  10.841   5.487  0.00  0.00    +0.000 A 
ATOM      4  C   UNL     1      -6.965  13.244   6.312  0.00  0.00    +0.000 A 
ATOM      5  C   UNL     1      -7.390  11.614   4.581  0.00  0.00    +0.000 A 
ATOM      6  C   UNL     1      -6.815  12.815   4.992  0.00  0.00    +0.000 A 
ATOM      7  H   UNL     1      -8.539   9.903   5.136  0.00  0.00    +0.000 HD
ATOM      8  H   UNL     1      -6.511  14.182   6.620  0.00  0.00    +0.000 HD
ATOM      9  H   UNL     1      -7.270  11.278   3.555  0.00  0.00    +0.000 HD
ATOM     10  H   UNL     1      -6.249  13.417   4.287  0.00  0.00    +0.000 HD
ENDROOT
BRANCH   2  11
ATOM     11  N   UNL     1      -7.832  12.924   8.550  0.00  0.00    +0.000 N 
ATOM     12  H   UNL     1      -7.094  13.447   9.000  0.00  0.00    +0.000 HD
ATOM     13  H   UNL     1      -8.676  12.710   9.064  0.00  0.00    +0.000 HD
ENDBRANCH   2  11
BRANCH   1  15
ATOM     14  O   UNL     1     -10.132  10.750   8.196  0.00  0.00    +0.000 OA
ATOM     15  C   UNL     1      -9.031  10.439   7.728  0.00  0.00    +0.000 C 
BRANCH  15  16
ATOM     16  O   UNL     1      -8.377   9.272   8.010  0.00  0.00    +0.000 OA
BRANCH  16  17
ATOM     17  C   UNL     1      -8.261   8.917   9.392  0.00  0.00    +0.000 C 
ATOM     18  H   UNL     1      -9.178   9.204   9.918  0.00  0.00    +0.000 HD
ATOM     19  H   UNL     1      -8.113   7.835   9.479  0.00  0.00    +0.000 HD
BRANCH  17  20
ATOM     20  C   UNL     1      -7.076   9.646   9.990  0.00  0.00    +0.000 C 
ATOM     21  H   UNL     1      -7.406  10.438  10.668  0.00  0.00    +0.000 HD
ATOM     22  H   UNL     1      -6.435   8.951  10.542  0.00  0.00    +0.000 HD
ATOM     23  H   UNL     1      -6.459  10.090   9.202  0.00  0.00    +0.000 HD
ENDBRANCH  17  20
ENDBRANCH  16  17
ENDBRANCH  15  16
ENDBRANCH   1  15
TORSDOF 5
ENDMDL
MODEL 5
REMARK VINA RESULT:    -4.640     15.171     16.275
REMARK INTER + INTRA:          -6.259
REMARK INTER:                  -5.844
REMARK INTRA:                  -0.415
REMARK UNBOUND:                -0.534
REMARK  Name = 6877
REMARK  5 active torsions:
REMARK  status: ('A' for Active; 'I' for Inactive)
REMARK    1  A    between atoms: O_1  and  C_8
REMARK    2  A    between atoms: O_1  and  C_10
REMARK    3  A    between atoms: N_3  and  C_5
REMARK    4  A    between atoms: C_4  and  C_8
REMARK    5  A    between atoms: C_10  and  C_12
REMARK                            x       y       z     vdW  Elec       q    Type
REMARK                         _______ _______ _______ _____ _____    ______ ____
ROOT
ATOM      1  C   UNL     1       2.728  -0.420 -13.619  0.00  0.00    +0.000 A 
ATOM      2  C   UNL     1       3.297  -1.693 -13.574  0.00  0.00    +0.000 A 
ATOM      3  C   UNL     1       3.307   0.575 -14.406  0.00  0.00    +0.000 A 
ATOM      4  C   UNL     1       4.443  -1.971 -14.318  0.00  0.00    +0.000 A 
ATOM      5  C   UNL     1       4.454   0.297 -15.148  0.00  0.00    +0.000 A 
ATOM      6  C   UNL     1       5.023  -0.975 -15.105  0.00  0.00    +0.000 A 
ATOM      7  H   UNL     1       2.882   1.573 -14.474  0.00  0.00    +0.000 HD
ATOM      8  H   UNL     1       4.896  -2.959 -14.293  0.00  0.00    +0.000 HD
ATOM      9  H   UNL     1       4.903   1.071 -15.764  0.00  0.00    +0.000 HD
ATOM     10  H   UNL     1       5.916  -1.192 -15.684  0.00  0.00    +0.000 HD
ENDROOT
BRANCH   2  11
ATOM     11  N   UNL     1       2.725  -2.716 -12.783  0.00  0.00    +0.000 N 
ATOM     12  H   UNL     1       3.022  -2.860 -11.828  0.00  0.00    +0.000 HD
ATOM     13  H   UNL     1       2.020  -3.321 -13.182  0.00  0.00    +0.000 HD
ENDBRANCH   2  11
BRANCH   1  15
ATOM     14  O   UNL     1       1.467   0.792 -11.998  0.00  0.00    +0.000 OA
ATOM     15  C   UNL     1       1.530  -0.098 -12.853  0.00  0.00    +0.000 C 
BRANCH  15  16
ATOM     16  O   UNL     1       0.482  -0.905 -13.202  0.00  0.00    +0.000 OA
BRANCH  16  17
ATOM     17  C   UNL     1      -0.532  -1.107 -12.211  0.00  0.00    +0.000 C 
ATOM     18  H   UNL     1      -0.752  -2.177 -12.130  0.00  0.00    +0.000 HD
ATOM     19  H   UNL     1      -0.177  -0.733 -11.245  0.00  0.00    +0.000 HD
BRANCH  17  20
ATOM     20  C   UNL     1      -1.780  -0.356 -12.625  0.00  0.00    +0.000 C 
ATOM     21  H   UNL     1      -2.490  -1.022 -13.124  0.00  0.00    +0.000 HD
ATOM     22  H   UNL     1      -2.268   0.090 -11.753  0.00  0.00    +0.000 HD
ATOM     23  H   UNL     1      -1.528   0.465 -13.304  0.00  0.00    +0.000 HD
ENDBRANCH  17  20
ENDBRANCH  16  17
ENDBRANCH  15  16
ENDBRANCH   1  15
TORSDOF 5
ENDMDL
MODEL 6
REMARK VINA RESULT:    -4.528     22.422     23.119
REMARK INTER + INTRA:          -6.122
REMARK INTER:                  -5.739
REMARK INTRA:                  -0.382
REMARK UNBOUND:                -0.534
REMARK  Name = 6877
REMARK  5 active torsions:
REMARK  status: ('A' for Active; 'I' for Inactive)
REMARK    1  A    between atoms: O_1  and  C_8
REMARK    2  A    between atoms: O_1  and  C_10
REMARK    3  A    between atoms: N_3  and  C_5
REMARK    4  A    between atoms: C_4  and  C_8
REMARK    5  A    between atoms: C_10  and  C_12
REMARK                            x       y       z     vdW  Elec       q    Type
REMARK                         _______ _______ _______ _____ _____    ______ ____
ROOT
ATOM      1  C   UNL     1      -9.893   9.797  17.486  0.00  0.00    +0.000 A 
ATOM      2  C   UNL     1      -9.042   8.846  18.050  0.00  0.00    +0.000 A 
ATOM      3  C   UNL     1     -11.056  10.176  18.156  0.00  0.00    +0.000 A 
ATOM      4  C   UNL     1      -9.354   8.276  19.284  0.00  0.00    +0.000 A 
ATOM      5  C   UNL     1     -11.368   9.605  19.390  0.00  0.00    +0.000 A 
ATOM      6  C   UNL     1     -10.518   8.655  19.954  0.00  0.00    +0.000 A 
ATOM      7  H   UNL     1     -11.734  10.925  17.752  0.00  0.00    +0.000 HD
ATOM      8  H   UNL     1      -8.700   7.534  19.735  0.00  0.00    +0.000 HD
ATOM      9  H   UNL     1     -12.272   9.904  19.913  0.00  0.00    +0.000 HD
ATOM     10  H   UNL     1     -10.760   8.211  20.915  0.00  0.00    +0.000 HD
ENDROOT
BRANCH   2  11
ATOM     11  N   UNL     1      -7.859   8.448  17.387  0.00  0.00    +0.000 N 
ATOM     12  H   UNL     1      -7.355   7.622  17.678  0.00  0.00    +0.000 HD
ATOM     13  H   UNL     1      -7.504   9.003  16.620  0.00  0.00    +0.000 HD
ENDBRANCH   2  11
BRANCH   1  15
ATOM     14  O   UNL     1      -8.541  11.000  15.933  0.00  0.00    +0.000 OA
ATOM     15  C   UNL     1      -9.596  10.412  16.198  0.00  0.00    +0.000 C 
BRANCH  15  16
ATOM     16  O   UNL     1     -10.630  10.254  15.318  0.00  0.00    +0.000 OA
BRANCH  16  17
ATOM     17  C   UNL     1     -10.344  10.498  13.937  0.00  0.00    +0.000 C 
ATOM     18  H   UNL     1     -10.785  11.456  13.638  0.00  0.00    +0.000 HD
ATOM     19  H   UNL     1      -9.259  10.536  13.791  0.00  0.00    +0.000 HD
BRANCH  17  20
ATOM     20  C   UNL     1     -10.936   9.380  13.106  0.00  0.00    +0.000 C 
ATOM     21  H   UNL     1     -10.225   8.555  12.997  0.00  0.00    +0.000 HD
ATOM     22  H   UNL     1     -11.851   8.998  13.571  0.00  0.00    +0.000 HD
ATOM     23  H   UNL     1     -11.212   9.743  12.111  0.00  0.00    +0.000 HD
ENDBRANCH  17  20
ENDBRANCH  16  17
ENDBRANCH  15  16
ENDBRANCH   1  15
TORSDOF 5
ENDMDL
MODEL 7
REMARK VINA RESULT:    -4.497      2.419      3.974
REMARK INTER + INTRA:          -6.083
REMARK INTER:                  -5.602
REMARK INTRA:                  -0.480
REMARK UNBOUND:                -0.534
REMARK  Name = 6877
REMARK  5 active torsions:
REMARK  status: ('A' for Active; 'I' for Inactive)
REMARK    1  A    between atoms: O_1  and  C_8
REMARK    2  A    between atoms: O_1  and  C_10
REMARK    3  A    between atoms: N_3  and  C_5
REMARK    4  A    between atoms: C_4  and  C_8
REMARK    5  A    between atoms: C_10  and  C_12
REMARK                            x       y       z     vdW  Elec       q    Type
REMARK                         _______ _______ _______ _____ _____    ______ ____
ROOT
ATOM      1  C   UNL     1      -9.982   5.523  -5.384  0.00  0.00    +0.000 A 
ATOM      2  C   UNL     1      -9.183   6.651  -5.570  0.00  0.00    +0.000 A 
ATOM      3  C   UNL     1     -11.366   5.659  -5.273  0.00  0.00    +0.000 A 
ATOM      4  C   UNL     1      -9.767   7.915  -5.646  0.00  0.00    +0.000 A 
ATOM      5  C   UNL     1     -11.950   6.924  -5.348  0.00  0.00    +0.000 A 
ATOM      6  C   UNL     1     -11.151   8.052  -5.535  0.00  0.00    +0.000 A 
ATOM      7  H   UNL     1     -12.020   4.800  -5.142  0.00  0.00    +0.000 HD
ATOM      8  H   UNL     1      -9.156   8.802  -5.791  0.00  0.00    +0.000 HD
ATOM      9  H   UNL     1     -13.028   7.029  -5.265  0.00  0.00    +0.000 HD
ATOM     10  H   UNL     1     -11.606   9.036  -5.594  0.00  0.00    +0.000 HD
ENDROOT
BRANCH   2  11
ATOM     11  N   UNL     1      -7.779   6.534  -5.686  0.00  0.00    +0.000 N 
ATOM     12  H   UNL     1      -7.237   7.244  -6.156  0.00  0.00    +0.000 HD
ATOM     13  H   UNL     1      -7.312   5.722  -5.304  0.00  0.00    +0.000 HD
ENDBRANCH   2  11
BRANCH   1  15
ATOM     14  O   UNL     1      -8.525   3.858  -4.495  0.00  0.00    +0.000 OA
ATOM     15  C   UNL     1      -9.402   4.188  -5.301  0.00  0.00    +0.000 C 
BRANCH  15  16
ATOM     16  O   UNL     1      -9.952   3.346  -6.227  0.00  0.00    +0.000 OA
BRANCH  16  17
ATOM     17  C   UNL     1      -9.478   3.471  -7.573  0.00  0.00    +0.000 C 
ATOM     18  H   UNL     1     -10.319   3.354  -8.266  0.00  0.00    +0.000 HD
ATOM     19  H   UNL     1      -9.029   4.461  -7.710  0.00  0.00    +0.000 HD
BRANCH  17  20
ATOM     20  C   UNL     1      -8.444   2.397  -7.833  0.00  0.00    +0.000 C 
ATOM     21  H   UNL     1      -7.641   2.440  -7.092  0.00  0.00    +0.000 HD
ATOM     22  H   UNL     1      -8.904   1.404  -7.800  0.00  0.00    +0.000 HD
ATOM     23  H   UNL     1      -8.010   2.513  -8.832  0.00  0.00    +0.000 HD
ENDBRANCH  17  20
ENDBRANCH  16  17
ENDBRANCH  15  16
ENDBRANCH   1  15
TORSDOF 5
ENDMDL
MODEL 8
REMARK VINA RESULT:    -4.477     26.999     28.107
REMARK INTER + INTRA:          -6.058
REMARK INTER:                  -5.547
REMARK INTRA:                  -0.511
REMARK UNBOUND:                -0.534
REMARK  Name = 6877
REMARK  5 active torsions:
REMARK  status: ('A' for Active; 'I' for Inactive)
REMARK    1  A    between atoms: O_1  and  C_8
REMARK    2  A    between atoms: O_1  and  C_10
REMARK    3  A    between atoms: N_3  and  C_5
REMARK    4  A    between atoms: C_4  and  C_8
REMARK    5  A    between atoms: C_10  and  C_12
REMARK                            x       y       z     vdW  Elec       q    Type
REMARK                         _______ _______ _______ _____ _____    ______ ____
ROOT
ATOM      1  C   UNL     1     -10.275 -10.983  16.091  0.00  0.00    +0.000 A 
ATOM      2  C   UNL     1      -9.226 -10.795  15.191  0.00  0.00    +0.000 A 
ATOM      3  C   UNL     1     -10.126 -11.867  17.160  0.00  0.00    +0.000 A 
ATOM      4  C   UNL     1      -8.029 -11.489  15.359  0.00  0.00    +0.000 A 
ATOM      5  C   UNL     1      -8.928 -12.562  17.328  0.00  0.00    +0.000 A 
ATOM      6  C   UNL     1      -7.880 -12.374  16.429  0.00  0.00    +0.000 A 
ATOM      7  H   UNL     1     -10.917 -12.027  17.888  0.00  0.00    +0.000 HD
ATOM      8  H   UNL     1      -7.204 -11.351  14.666  0.00  0.00    +0.000 HD
ATOM      9  H   UNL     1      -8.811 -13.248  18.162  0.00  0.00    +0.000 HD
ATOM     10  H   UNL     1      -6.947 -12.914  16.560  0.00  0.00    +0.000 HD
ENDROOT
BRANCH   2  11
ATOM     11  N   UNL     1      -9.357  -9.903  14.102  0.00  0.00    +0.000 N 
ATOM     12  H   UNL     1     -10.266  -9.668  13.730  0.00  0.00    +0.000 HD
ATOM     13  H   UNL     1      -8.528  -9.506  13.679  0.00  0.00    +0.000 HD
ENDBRANCH   2  11
BRANCH   1  15
ATOM     14  O   UNL     1     -11.673  -9.052  16.085  0.00  0.00    +0.000 OA
ATOM     15  C   UNL     1     -11.539 -10.272  15.943  0.00  0.00    +0.000 C 
BRANCH  15  16
ATOM     16  O   UNL     1     -12.558 -11.126  15.626  0.00  0.00    +0.000 OA
BRANCH  16  17
ATOM     17  C   UNL     1     -13.831 -10.861  16.226  0.00  0.00    +0.000 C 
ATOM     18  H   UNL     1     -14.010  -9.780  16.233  0.00  0.00    +0.000 HD
ATOM     19  H   UNL     1     -14.617 -11.357  15.647  0.00  0.00    +0.000 HD
BRANCH  17  20
ATOM     20  C   UNL     1     -13.826 -11.389  17.644  0.00  0.00    +0.000 C 
ATOM     21  H   UNL     1     -13.060 -12.160  17.772  0.00  0.00    +0.000 HD
ATOM     22  H   UNL     1     -13.635 -10.580  18.356  0.00  0.00    +0.000 HD
ATOM     23  H   UNL     1     -14.802 -11.814  17.901  0.00  0.00    +0.000 HD
ENDBRANCH  17  20
ENDBRANCH  16  17
ENDBRANCH  15  16
ENDBRANCH   1  15
TORSDOF 5
ENDMDL
MODEL 9
REMARK VINA RESULT:    -4.476     28.112     29.777
REMARK INTER + INTRA:          -6.057
REMARK INTER:                  -5.542
REMARK INTRA:                  -0.516
REMARK UNBOUND:                -0.534
REMARK  Name = 6877
REMARK  5 active torsions:
REMARK  status: ('A' for Active; 'I' for Inactive)
REMARK    1  A    between atoms: O_1  and  C_8
REMARK    2  A    between atoms: O_1  and  C_10
REMARK    3  A    between atoms: N_3  and  C_5
REMARK    4  A    between atoms: C_4  and  C_8
REMARK    5  A    between atoms: C_10  and  C_12
REMARK                            x       y       z     vdW  Elec       q    Type
REMARK                         _______ _______ _______ _____ _____    ______ ____
ROOT
ATOM      1  C   UNL     1      -9.725 -11.975  17.270  0.00  0.00    +0.000 A 
ATOM      2  C   UNL     1      -8.426 -12.412  17.012  0.00  0.00    +0.000 A 
ATOM      3  C   UNL     1     -10.366 -11.124  16.370  0.00  0.00    +0.000 A 
ATOM      4  C   UNL     1      -7.768 -11.999  15.854  0.00  0.00    +0.000 A 
ATOM      5  C   UNL     1      -9.707 -10.709  15.213  0.00  0.00    +0.000 A 
ATOM      6  C   UNL     1      -8.409 -11.147  14.954  0.00  0.00    +0.000 A 
ATOM      7  H   UNL     1     -11.383 -10.775  16.533  0.00  0.00    +0.000 HD
ATOM      8  H   UNL     1      -6.756 -12.333  15.641  0.00  0.00    +0.000 HD
ATOM      9  H   UNL     1     -10.208 -10.049  14.510  0.00  0.00    +0.000 HD
ATOM     10  H   UNL     1      -7.896 -10.825  14.052  0.00  0.00    +0.000 HD
ENDROOT
BRANCH   2  11
ATOM     11  N   UNL     1      -7.759 -13.276  17.911  0.00  0.00    +0.000 N 
ATOM     12  H   UNL     1      -6.806 -13.564  17.743  0.00  0.00    +0.000 HD
ATOM     13  H   UNL     1      -8.247 -13.622  18.727  0.00  0.00    +0.000 HD
ENDBRANCH   2  11
BRANCH   1  15
ATOM     14  O   UNL     1      -9.961 -12.367  19.610  0.00  0.00    +0.000 OA
ATOM     15  C   UNL     1     -10.440 -12.389  18.471  0.00  0.00    +0.000 C 
BRANCH  15  16
ATOM     16  O   UNL     1     -11.709 -12.806  18.178  0.00  0.00    +0.000 OA
BRANCH  16  17
ATOM     17  C   UNL     1     -11.870 -14.186  17.832  0.00  0.00    +0.000 C 
ATOM     18  H   UNL     1     -10.883 -14.646  17.707  0.00  0.00    +0.000 HD
ATOM     19  H   UNL     1     -12.413 -14.702  18.632  0.00  0.00    +0.000 HD
BRANCH  17  20
ATOM     20  C   UNL     1     -12.649 -14.282  16.538  0.00  0.00    +0.000 C 
ATOM     21  H   UNL     1     -12.585 -13.347  15.973  0.00  0.00    +0.000 HD
ATOM     22  H   UNL     1     -12.265 -15.098  15.917  0.00  0.00    +0.000 HD
ATOM     23  H   UNL     1     -13.703 -14.503  16.738  0.00  0.00    +0.000 HD
ENDBRANCH  17  20
ENDBRANCH  16  17
ENDBRANCH  15  16
ENDBRANCH   1  15
TORSDOF 5
ENDMDL
MODEL 10
REMARK VINA RESULT:    -4.437     14.316     15.332
REMARK INTER + INTRA:          -6.009
REMARK INTER:                  -5.475
REMARK INTRA:                  -0.534
REMARK UNBOUND:                -0.534
REMARK  Name = 6877
REMARK  5 active torsions:
REMARK  status: ('A' for Active; 'I' for Inactive)
REMARK    1  A    between atoms: O_1  and  C_8
REMARK    2  A    between atoms: O_1  and  C_10
REMARK    3  A    between atoms: N_3  and  C_5
REMARK    4  A    between atoms: C_4  and  C_8
REMARK    5  A    between atoms: C_10  and  C_12
REMARK                            x       y       z     vdW  Elec       q    Type
REMARK                         _______ _______ _______ _____ _____    ______ ____
ROOT
ATOM      1  C   UNL     1      -7.405  12.730   7.260  0.00  0.00    +0.000 A 
ATOM      2  C   UNL     1      -8.132  11.597   6.897  0.00  0.00    +0.000 A 
ATOM      3  C   UNL     1      -6.660  13.417   6.302  0.00  0.00    +0.000 A 
ATOM      4  C   UNL     1      -8.115  11.150   5.576  0.00  0.00    +0.000 A 
ATOM      5  C   UNL     1      -6.642  12.970   4.981  0.00  0.00    +0.000 A 
ATOM      6  C   UNL     1      -7.369  11.837   4.617  0.00  0.00    +0.000 A 
ATOM      7  H   UNL     1      -6.093  14.312   6.547  0.00  0.00    +0.000 HD
ATOM      8  H   UNL     1      -8.678  10.269   5.280  0.00  0.00    +0.000 HD
ATOM      9  H   UNL     1      -6.065  13.507   4.234  0.00  0.00    +0.000 HD
ATOM     10  H   UNL     1      -7.356  11.489   3.588  0.00  0.00    +0.000 HD
ENDROOT
BRANCH   2  11
ATOM     11  N   UNL     1      -8.894  10.887   7.853  0.00  0.00    +0.000 N 
ATOM     12  H   UNL     1      -9.459  10.094   7.581  0.00  0.00    +0.000 HD
ATOM     13  H   UNL     1      -8.886  11.184   8.820  0.00  0.00    +0.000 HD
ENDBRANCH   2  11
BRANCH   1  15
ATOM     14  O   UNL     1      -8.386  13.712   9.199  0.00  0.00    +0.000 OA
ATOM     15  C   UNL     1      -7.403  13.223   8.632  0.00  0.00    +0.000 C 
BRANCH  15  16
ATOM     16  O   UNL     1      -6.175  13.074   9.214  0.00  0.00    +0.000 OA
BRANCH  16  17
ATOM     17  C   UNL     1      -6.132  12.354  10.451  0.00  0.00    +0.000 C 
ATOM     18  H   UNL     1      -5.262  12.682  11.032  0.00  0.00    +0.000 HD
ATOM     19  H   UNL     1      -7.046  12.552  11.020  0.00  0.00    +0.000 HD
BRANCH  17  20
ATOM     20  C   UNL     1      -6.022  10.873  10.156  0.00  0.00    +0.000 C 
ATOM     21  H   UNL     1      -5.893  10.299  11.077  0.00  0.00    +0.000 HD
ATOM     22  H   UNL     1      -6.919  10.516   9.639  0.00  0.00    +0.000 HD
ATOM     23  H   UNL     1      -5.173  10.674   9.493  0.00  0.00    +0.000 HD
ENDBRANCH  17  20
ENDBRANCH  16  17
ENDBRANCH  15  16
ENDBRANCH   1  15
TORSDOF 5
ENDMDL
