MODEL 1
REMARK VINA RESULT:    -5.325      0.000      0.000
REMARK INTER + INTRA:          -7.795
REMARK INTER:                  -7.235
REMARK INTRA:                  -0.560
REMARK UNBOUND:                -0.446
REMARK  Name = 7334
REMARK  9 active torsions:
REMARK  status: ('A' for Active; 'I' for Inactive)
REMARK    1  A    between atoms: O_1  and  C_9
REMARK    2  A    between atoms: O_1  and  C_13
REMARK    3  A    between atoms: C_3  and  C_6
REMARK    4  A    between atoms: C_3  and  C_7
REMARK    5  A    between atoms: C_4  and  C_8
REMARK    6  A    between atoms: C_5  and  C_9
REMARK    7  A    between atoms: C_10  and  C_11
REMARK    8  A    between atoms: C_10  and  C_12
REMARK    9  A    between atoms: C_13  and  C_14
REMARK                            x       y       z     vdW  Elec       q    Type
REMARK                         _______ _______ _______ _____ _____    ______ ____
ROOT
ATOM      1  C   UNL     1       4.559   9.159   1.276  0.00  0.00    +0.000 C 
ATOM      2  C   UNL     1       5.851   8.446   1.478  0.00  0.00    +0.000 C 
ATOM      3  C   UNL     1       5.850   9.811   0.879  0.00  0.00    +0.000 C 
ATOM      4  H   UNL     1       6.080   7.607   0.827  0.00  0.00    +0.000 HD
ATOM      5  H   UNL     1       6.198  10.635   1.496  0.00  0.00    +0.000 HD
ENDROOT
BRANCH   1   6
ATOM      6  C   UNL     1       3.656   8.628   0.213  0.00  0.00    +0.000 C 
ATOM      7  H   UNL     1       3.315   7.605   0.409  0.00  0.00    +0.000 HD
ATOM      8  H   UNL     1       2.760   9.252   0.127  0.00  0.00    +0.000 HD
ATOM      9  H   UNL     1       4.163   8.630  -0.758  0.00  0.00    +0.000 HD
ENDBRANCH   1   6
BRANCH   1  10
ATOM     10  C   UNL     1       3.828   9.740   2.441  0.00  0.00    +0.000 C 
ATOM     11  H   UNL     1       4.516   9.937   3.269  0.00  0.00    +0.000 HD
ATOM     12  H   UNL     1       3.311  10.676   2.202  0.00  0.00    +0.000 HD
ATOM     13  H   UNL     1       3.065   9.040   2.799  0.00  0.00    +0.000 HD
ENDBRANCH   1  10
BRANCH   2  14
ATOM     14  C   UNL     1       6.397   8.290   2.839  0.00  0.00    +0.000 C 
ATOM     15  C   UNL     1       6.017   7.408   3.784  0.00  0.00    +0.000 C 
ATOM     16  H   UNL     1       7.211   8.969   3.091  0.00  0.00    +0.000 HD
BRANCH  15  17
ATOM     17  C   UNL     1       6.680   7.379   5.133  0.00  0.00    +0.000 C 
ATOM     18  H   UNL     1       6.353   8.234   5.734  0.00  0.00    +0.000 HD
ATOM     19  H   UNL     1       6.417   6.459   5.665  0.00  0.00    +0.000 HD
ATOM     20  H   UNL     1       7.772   7.422   5.062  0.00  0.00    +0.000 HD
ENDBRANCH  15  17
BRANCH  15  21
ATOM     21  C   UNL     1       4.925   6.395   3.589  0.00  0.00    +0.000 C 
ATOM     22  H   UNL     1       5.184   5.459   4.095  0.00  0.00    +0.000 HD
ATOM     23  H   UNL     1       3.986   6.768   4.010  0.00  0.00    +0.000 HD
ATOM     24  H   UNL     1       4.744   6.160   2.537  0.00  0.00    +0.000 HD
ENDBRANCH  15  21
ENDBRANCH   2  14
BRANCH   3  26
ATOM     25  O   UNL     1       5.847  10.875  -1.256  0.00  0.00    +0.000 OA
ATOM     26  C   UNL     1       6.210   9.949  -0.544  0.00  0.00    +0.000 C 
BRANCH  26  27
ATOM     27  O   UNL     1       6.994   8.899  -0.920  0.00  0.00    +0.000 OA
BRANCH  27  28
ATOM     28  C   UNL     1       8.133   9.236  -1.718  0.00  0.00    +0.000 C 
ATOM     29  H   UNL     1       8.489   8.342  -2.241  0.00  0.00    +0.000 HD
ATOM     30  H   UNL     1       7.852   9.999  -2.452  0.00  0.00    +0.000 HD
BRANCH  28  31
ATOM     31  C   UNL     1       9.225   9.770  -0.816  0.00  0.00    +0.000 C 
ATOM     32  H   UNL     1       9.921  10.402  -1.376  0.00  0.00    +0.000 HD
ATOM     33  H   UNL     1       8.796  10.357   0.003  0.00  0.00    +0.000 HD
ATOM     34  H   UNL     1       9.784   8.947  -0.358  0.00  0.00    +0.000 HD
ENDBRANCH  28  31
ENDBRANCH  27  28
ENDBRANCH  26  27
ENDBRANCH   3  26
TORSDOF 9
ENDMDL
MODEL 2
REMARK VINA RESULT:    -5.037     15.132     17.557
REMARK INTER + INTRA:          -7.396
REMARK INTER:                  -6.836
REMARK INTRA:                  -0.560
REMARK UNBOUND:                -0.446
REMARK  Name = 7334
REMARK  9 active torsions:
REMARK  status: ('A' for Active; 'I' for Inactive)
REMARK    1  A    between atoms: O_1  and  C_9
REMARK    2  A    between atoms: O_1  and  C_13
REMARK    3  A    between atoms: C_3  and  C_6
REMARK    4  A    between atoms: C_3  and  C_7
REMARK    5  A    between atoms: C_4  and  C_8
REMARK    6  A    between atoms: C_5  and  C_9
REMARK    7  A    between atoms: C_10  and  C_11
REMARK    8  A    between atoms: C_10  and  C_12
REMARK    9  A    between atoms: C_13  and  C_14
REMARK                            x       y       z     vdW  Elec       q    Type
REMARK                         _______ _______ _______ _____ _____    ______ ____
ROOT
ATOM      1  C   UNL     1     -10.118  10.043   8.375  0.00  0.00    +0.000 C 
ATOM      2  C   UNL     1      -8.781  10.562   7.973  0.00  0.00    +0.000 C 
ATOM      3  C   UNL     1      -8.879   9.253   8.679  0.00  0.00    +0.000 C 
ATOM      4  H   UNL     1      -8.373  11.406   8.523  0.00  0.00    +0.000 HD
ATOM      5  H   UNL     1      -8.713   8.351   8.098  0.00  0.00    +0.000 HD
ENDROOT
BRANCH   1   6
ATOM      6  C   UNL     1     -10.813  10.760   9.485  0.00  0.00    +0.000 C 
ATOM      7  H   UNL     1     -11.782  10.318   9.743  0.00  0.00    +0.000 HD
ATOM      8  H   UNL     1     -10.202  10.740  10.393  0.00  0.00    +0.000 HD
ATOM      9  H   UNL     1     -10.985  11.808   9.217  0.00  0.00    +0.000 HD
ENDBRANCH   1   6
BRANCH   1  10
ATOM     10  C   UNL     1     -11.051   9.486   7.352  0.00  0.00    +0.000 C 
ATOM     11  H   UNL     1     -10.509   8.859   6.636  0.00  0.00    +0.000 HD
ATOM     12  H   UNL     1     -11.857   8.884   7.784  0.00  0.00    +0.000 HD
ATOM     13  H   UNL     1     -11.529  10.298   6.791  0.00  0.00    +0.000 HD
ENDBRANCH   1  10
BRANCH   2  14
ATOM     14  C   UNL     1      -8.389  10.552   6.551  0.00  0.00    +0.000 C 
ATOM     15  C   UNL     1      -7.830  11.553   5.843  0.00  0.00    +0.000 C 
ATOM     16  H   UNL     1      -8.570   9.613   6.029  0.00  0.00    +0.000 HD
BRANCH  15  17
ATOM     17  C   UNL     1      -7.488  11.380   4.389  0.00  0.00    +0.000 C 
ATOM     18  H   UNL     1      -7.255  12.350   3.937  0.00  0.00    +0.000 HD
ATOM     19  H   UNL     1      -6.616  10.727   4.280  0.00  0.00    +0.000 HD
ATOM     20  H   UNL     1      -8.310  10.937   3.817  0.00  0.00    +0.000 HD
ENDBRANCH  15  17
BRANCH  15  21
ATOM     21  C   UNL     1      -7.501  12.901   6.419  0.00  0.00    +0.000 C 
ATOM     22  H   UNL     1      -7.021  13.528   5.660  0.00  0.00    +0.000 HD
ATOM     23  H   UNL     1      -8.415  13.401   6.753  0.00  0.00    +0.000 HD
ATOM     24  H   UNL     1      -6.824  12.845   7.275  0.00  0.00    +0.000 HD
ENDBRANCH  15  21
ENDBRANCH   2  14
BRANCH   3  26
ATOM     25  O   UNL     1      -7.708  10.041  10.603  0.00  0.00    +0.000 OA
ATOM     26  C   UNL     1      -8.370   9.166  10.060  0.00  0.00    +0.000 C 
BRANCH  26  27
ATOM     27  O   UNL     1      -8.749   7.979  10.612  0.00  0.00    +0.000 OA
BRANCH  27  28
ATOM     28  C   UNL     1      -9.586   8.078  11.769  0.00  0.00    +0.000 C 
ATOM     29  H   UNL     1      -9.218   7.398  12.545  0.00  0.00    +0.000 HD
ATOM     30  H   UNL     1      -9.565   9.106  12.147  0.00  0.00    +0.000 HD
BRANCH  28  31
ATOM     31  C   UNL     1     -11.002   7.702  11.387  0.00  0.00    +0.000 C 
ATOM     32  H   UNL     1     -11.251   8.076  10.389  0.00  0.00    +0.000 HD
ATOM     33  H   UNL     1     -11.127   6.614  11.399  0.00  0.00    +0.000 HD
ATOM     34  H   UNL     1     -11.717   8.113  12.108  0.00  0.00    +0.000 HD
ENDBRANCH  28  31
ENDBRANCH  27  28
ENDBRANCH  26  27
ENDBRANCH   3  26
TORSDOF 9
ENDMDL
MODEL 3
REMARK VINA RESULT:    -4.945     13.718     15.422
REMARK INTER + INTRA:          -7.270
REMARK INTER:                  -7.068
REMARK INTRA:                  -0.201
REMARK UNBOUND:                -0.446
REMARK  Name = 7334
REMARK  9 active torsions:
REMARK  status: ('A' for Active; 'I' for Inactive)
REMARK    1  A    between atoms: O_1  and  C_9
REMARK    2  A    between atoms: O_1  and  C_13
REMARK    3  A    between atoms: C_3  and  C_6
REMARK    4  A    between atoms: C_3  and  C_7
REMARK    5  A    between atoms: C_4  and  C_8
REMARK    6  A    between atoms: C_5  and  C_9
REMARK    7  A    between atoms: C_10  and  C_11
REMARK    8  A    between atoms: C_10  and  C_12
REMARK    9  A    between atoms: C_13  and  C_14
REMARK                            x       y       z     vdW  Elec       q    Type
REMARK                         _______ _______ _______ _____ _____    ______ ____
ROOT
ATOM      1  C   UNL     1      -3.037   8.528 -10.202  0.00  0.00    +0.000 C 
ATOM      2  C   UNL     1      -3.910   7.377 -10.569  0.00  0.00    +0.000 C 
ATOM      3  C   UNL     1      -2.433   7.264 -10.740  0.00  0.00    +0.000 C 
ATOM      4  H   UNL     1      -4.519   7.462 -11.464  0.00  0.00    +0.000 HD
ATOM      5  H   UNL     1      -1.889   6.638 -10.038  0.00  0.00    +0.000 HD
ENDROOT
BRANCH   1   6
ATOM      6  C   UNL     1      -3.106   9.732 -11.081  0.00  0.00    +0.000 C 
ATOM      7  H   UNL     1      -2.901  10.667 -10.548  0.00  0.00    +0.000 HD
ATOM      8  H   UNL     1      -2.369   9.656 -11.888  0.00  0.00    +0.000 HD
ATOM      9  H   UNL     1      -4.097   9.819 -11.538  0.00  0.00    +0.000 HD
ENDBRANCH   1   6
BRANCH   1  10
ATOM     10  C   UNL     1      -2.780   8.853  -8.768  0.00  0.00    +0.000 C 
ATOM     11  H   UNL     1      -2.398   7.975  -8.236  0.00  0.00    +0.000 HD
ATOM     12  H   UNL     1      -2.062   9.668  -8.632  0.00  0.00    +0.000 HD
ATOM     13  H   UNL     1      -3.709   9.165  -8.276  0.00  0.00    +0.000 HD
ENDBRANCH   1  10
BRANCH   2  14
ATOM     14  C   UNL     1      -4.546   6.573  -9.508  0.00  0.00    +0.000 C 
ATOM     15  C   UNL     1      -5.772   6.015  -9.520  0.00  0.00    +0.000 C 
ATOM     16  H   UNL     1      -3.934   6.412  -8.622  0.00  0.00    +0.000 HD
BRANCH  15  17
ATOM     17  C   UNL     1      -6.275   5.219  -8.348  0.00  0.00    +0.000 C 
ATOM     18  H   UNL     1      -5.581   4.404  -8.118  0.00  0.00    +0.000 HD
ATOM     19  H   UNL     1      -6.364   5.860  -7.465  0.00  0.00    +0.000 HD
ATOM     20  H   UNL     1      -7.258   4.774  -8.536  0.00  0.00    +0.000 HD
ENDBRANCH  15  17
BRANCH  15  21
ATOM     21  C   UNL     1      -6.731   6.130 -10.671  0.00  0.00    +0.000 C 
ATOM     22  H   UNL     1      -7.703   6.491 -10.318  0.00  0.00    +0.000 HD
ATOM     23  H   UNL     1      -6.347   6.837 -11.413  0.00  0.00    +0.000 HD
ATOM     24  H   UNL     1      -6.900   5.177 -11.181  0.00  0.00    +0.000 HD
ENDBRANCH  15  21
ENDBRANCH   2  14
BRANCH   3  26
ATOM     25  O   UNL     1      -2.564   6.987 -13.106  0.00  0.00    +0.000 OA
ATOM     26  C   UNL     1      -1.892   7.220 -12.110  0.00  0.00    +0.000 C 
BRANCH  26  27
ATOM     27  O   UNL     1      -0.553   7.476 -12.081  0.00  0.00    +0.000 OA
BRANCH  27  28
ATOM     28  C   UNL     1      -0.175   8.815 -12.412  0.00  0.00    +0.000 C 
ATOM     29  H   UNL     1      -0.967   9.506 -12.100  0.00  0.00    +0.000 HD
ATOM     30  H   UNL     1       0.755   9.071 -11.893  0.00  0.00    +0.000 HD
BRANCH  28  31
ATOM     31  C   UNL     1       0.030   8.914 -13.909  0.00  0.00    +0.000 C 
ATOM     32  H   UNL     1       1.014   9.333 -14.142  0.00  0.00    +0.000 HD
ATOM     33  H   UNL     1      -0.054   7.927 -14.375  0.00  0.00    +0.000 HD
ATOM     34  H   UNL     1      -0.740   9.547 -14.362  0.00  0.00    +0.000 HD
ENDBRANCH  28  31
ENDBRANCH  27  28
ENDBRANCH  26  27
ENDBRANCH   3  26
TORSDOF 9
ENDMDL
MODEL 4
REMARK VINA RESULT:    -4.772      2.000      4.851
REMARK INTER + INTRA:          -7.031
REMARK INTER:                  -6.616
REMARK INTRA:                  -0.415
REMARK UNBOUND:                -0.446
REMARK  Name = 7334
REMARK  9 active torsions:
REMARK  status: ('A' for Active; 'I' for Inactive)
REMARK    1  A    between atoms: O_1  and  C_9
REMARK    2  A    between atoms: O_1  and  C_13
REMARK    3  A    between atoms: C_3  and  C_6
REMARK    4  A    between atoms: C_3  and  C_7
REMARK    5  A    between atoms: C_4  and  C_8
REMARK    6  A    between atoms: C_5  and  C_9
REMARK    7  A    between atoms: C_10  and  C_11
REMARK    8  A    between atoms: C_10  and  C_12
REMARK    9  A    between atoms: C_13  and  C_14
REMARK                            x       y       z     vdW  Elec       q    Type
REMARK                         _______ _______ _______ _____ _____    ______ ____
ROOT
ATOM      1  C   UNL     1       7.220   9.631  -0.536  0.00  0.00    +0.000 C 
ATOM      2  C   UNL     1       5.782   9.495  -0.173  0.00  0.00    +0.000 C 
ATOM      3  C   UNL     1       6.772   9.873   0.875  0.00  0.00    +0.000 C 
ATOM      4  H   UNL     1       5.357   8.496  -0.132  0.00  0.00    +0.000 HD
ATOM      5  H   UNL     1       6.772  10.902   1.224  0.00  0.00    +0.000 HD
ENDROOT
BRANCH   1   6
ATOM      6  C   UNL     1       7.955   8.372  -0.859  0.00  0.00    +0.000 C 
ATOM      7  H   UNL     1       8.178   7.765   0.026  0.00  0.00    +0.000 HD
ATOM      8  H   UNL     1       7.362   7.747  -1.534  0.00  0.00    +0.000 HD
ATOM      9  H   UNL     1       8.905   8.598  -1.356  0.00  0.00    +0.000 HD
ENDBRANCH   1   6
BRANCH   1  10
ATOM     10  C   UNL     1       7.693  10.812  -1.317  0.00  0.00    +0.000 C 
ATOM     11  H   UNL     1       8.126  11.567  -0.651  0.00  0.00    +0.000 HD
ATOM     12  H   UNL     1       8.446  10.558  -2.071  0.00  0.00    +0.000 HD
ATOM     13  H   UNL     1       6.855  11.276  -1.850  0.00  0.00    +0.000 HD
ENDBRANCH   1  10
BRANCH   2  14
ATOM     14  C   UNL     1       4.815  10.519  -0.612  0.00  0.00    +0.000 C 
ATOM     15  C   UNL     1       3.735  10.971   0.054  0.00  0.00    +0.000 C 
ATOM     16  H   UNL     1       5.020  10.958  -1.587  0.00  0.00    +0.000 HD
BRANCH  15  17
ATOM     17  C   UNL     1       2.843  12.027  -0.539  0.00  0.00    +0.000 C 
ATOM     18  H   UNL     1       2.285  11.618  -1.388  0.00  0.00    +0.000 HD
ATOM     19  H   UNL     1       2.127  12.382   0.209  0.00  0.00    +0.000 HD
ATOM     20  H   UNL     1       3.405  12.894  -0.899  0.00  0.00    +0.000 HD
ENDBRANCH  15  17
BRANCH  15  21
ATOM     21  C   UNL     1       3.325  10.481   1.413  0.00  0.00    +0.000 C 
ATOM     22  H   UNL     1       4.195  10.438   2.077  0.00  0.00    +0.000 HD
ATOM     23  H   UNL     1       2.588  11.161   1.852  0.00  0.00    +0.000 HD
ATOM     24  H   UNL     1       2.880   9.483   1.390  0.00  0.00    +0.000 HD
ENDBRANCH  15  21
ENDBRANCH   2  14
BRANCH   3  26
ATOM     25  O   UNL     1       8.069   8.941   2.648  0.00  0.00    +0.000 OA
ATOM     26  C   UNL     1       7.076   8.893   1.934  0.00  0.00    +0.000 C 
BRANCH  26  27
ATOM     27  O   UNL     1       6.092   7.951   1.980  0.00  0.00    +0.000 OA
BRANCH  27  28
ATOM     28  C   UNL     1       6.266   6.927   2.964  0.00  0.00    +0.000 C 
ATOM     29  H   UNL     1       6.524   5.984   2.469  0.00  0.00    +0.000 HD
ATOM     30  H   UNL     1       7.074   7.211   3.648  0.00  0.00    +0.000 HD
BRANCH  28  31
ATOM     31  C   UNL     1       4.976   6.762   3.738  0.00  0.00    +0.000 C 
ATOM     32  H   UNL     1       4.475   5.827   3.470  0.00  0.00    +0.000 HD
ATOM     33  H   UNL     1       5.170   6.764   4.815  0.00  0.00    +0.000 HD
ATOM     34  H   UNL     1       4.296   7.597   3.536  0.00  0.00    +0.000 HD
ENDBRANCH  28  31
ENDBRANCH  27  28
ENDBRANCH  26  27
ENDBRANCH   3  26
TORSDOF 9
ENDMDL
MODEL 5
REMARK VINA RESULT:    -4.710     14.918     17.080
REMARK INTER + INTRA:          -6.945
REMARK INTER:                  -6.354
REMARK INTRA:                  -0.591
REMARK UNBOUND:                -0.446
REMARK  Name = 7334
REMARK  9 active torsions:
REMARK  status: ('A' for Active; 'I' for Inactive)
REMARK    1  A    between atoms: O_1  and  C_9
REMARK    2  A    between atoms: O_1  and  C_13
REMARK    3  A    between atoms: C_3  and  C_6
REMARK    4  A    between atoms: C_3  and  C_7
REMARK    5  A    between atoms: C_4  and  C_8
REMARK    6  A    between atoms: C_5  and  C_9
REMARK    7  A    between atoms: C_10  and  C_11
REMARK    8  A    between atoms: C_10  and  C_12
REMARK    9  A    between atoms: C_13  and  C_14
REMARK                            x       y       z     vdW  Elec       q    Type
REMARK                         _______ _______ _______ _____ _____    ______ ____
ROOT
ATOM      1  C   UNL     1      -8.073  10.485   8.812  0.00  0.00    +0.000 C 
ATOM      2  C   UNL     1      -8.372  10.969   7.435  0.00  0.00    +0.000 C 
ATOM      3  C   UNL     1      -9.345  11.230   8.533  0.00  0.00    +0.000 C 
ATOM      4  H   UNL     1      -8.642  10.235   6.682  0.00  0.00    +0.000 HD
ATOM      5  H   UNL     1      -9.418  12.245   8.915  0.00  0.00    +0.000 HD
ENDROOT
BRANCH   1   6
ATOM      6  C   UNL     1      -8.128   9.011   9.034  0.00  0.00    +0.000 C 
ATOM      7  H   UNL     1      -8.346   8.445   8.121  0.00  0.00    +0.000 HD
ATOM      8  H   UNL     1      -7.168   8.646   9.414  0.00  0.00    +0.000 HD
ATOM      9  H   UNL     1      -8.899   8.762   9.771  0.00  0.00    +0.000 HD
ENDBRANCH   1   6
BRANCH   1  10
ATOM     10  C   UNL     1      -7.045  11.174   9.647  0.00  0.00    +0.000 C 
ATOM     11  H   UNL     1      -6.087  10.645   9.594  0.00  0.00    +0.000 HD
ATOM     12  H   UNL     1      -6.872  12.214   9.348  0.00  0.00    +0.000 HD
ATOM     13  H   UNL     1      -7.359  11.194  10.697  0.00  0.00    +0.000 HD
ENDBRANCH   1  10
BRANCH   2  14
ATOM     14  C   UNL     1      -7.627  12.118   6.884  0.00  0.00    +0.000 C 
ATOM     15  C   UNL     1      -7.219  12.303   5.613  0.00  0.00    +0.000 C 
ATOM     16  H   UNL     1      -7.398  12.905   7.601  0.00  0.00    +0.000 HD
BRANCH  15  17
ATOM     17  C   UNL     1      -6.464  13.539   5.212  0.00  0.00    +0.000 C 
ATOM     18  H   UNL     1      -5.727  13.298   4.438  0.00  0.00    +0.000 HD
ATOM     19  H   UNL     1      -7.152  14.292   4.814  0.00  0.00    +0.000 HD
ATOM     20  H   UNL     1      -5.926  13.991   6.052  0.00  0.00    +0.000 HD
ENDBRANCH  15  17
BRANCH  15  21
ATOM     21  C   UNL     1      -7.471  11.322   4.504  0.00  0.00    +0.000 C 
ATOM     22  H   UNL     1      -6.644  10.606   4.438  0.00  0.00    +0.000 HD
ATOM     23  H   UNL     1      -8.395  10.767   4.693  0.00  0.00    +0.000 HD
ATOM     24  H   UNL     1      -7.569  11.801   3.526  0.00  0.00    +0.000 HD
ENDBRANCH  15  21
ENDBRANCH   2  14
BRANCH   3  26
ATOM     25  O   UNL     1     -11.366  10.386   9.478  0.00  0.00    +0.000 OA
ATOM     26  C   UNL     1     -10.636  10.519   8.505  0.00  0.00    +0.000 C 
BRANCH  26  27
ATOM     27  O   UNL     1     -10.870  10.048   7.247  0.00  0.00    +0.000 OA
BRANCH  27  28
ATOM     28  C   UNL     1     -12.031  10.578   6.599  0.00  0.00    +0.000 C 
ATOM     29  H   UNL     1     -12.531   9.780   6.038  0.00  0.00    +0.000 HD
ATOM     30  H   UNL     1     -12.718  10.979   7.351  0.00  0.00    +0.000 HD
BRANCH  28  31
ATOM     31  C   UNL     1     -11.607  11.680   5.652  0.00  0.00    +0.000 C 
ATOM     32  H   UNL     1     -12.471  12.263   5.318  0.00  0.00    +0.000 HD
ATOM     33  H   UNL     1     -10.893  12.353   6.139  0.00  0.00    +0.000 HD
ATOM     34  H   UNL     1     -11.102  11.262   4.775  0.00  0.00    +0.000 HD
ENDBRANCH  28  31
ENDBRANCH  27  28
ENDBRANCH  26  27
ENDBRANCH   3  26
TORSDOF 9
ENDMDL
MODEL 6
REMARK VINA RESULT:    -4.622     25.819     28.082
REMARK INTER + INTRA:          -6.824
REMARK INTER:                  -6.245
REMARK INTRA:                  -0.579
REMARK UNBOUND:                -0.446
REMARK  Name = 7334
REMARK  9 active torsions:
REMARK  status: ('A' for Active; 'I' for Inactive)
REMARK    1  A    between atoms: O_1  and  C_9
REMARK    2  A    between atoms: O_1  and  C_13
REMARK    3  A    between atoms: C_3  and  C_6
REMARK    4  A    between atoms: C_3  and  C_7
REMARK    5  A    between atoms: C_4  and  C_8
REMARK    6  A    between atoms: C_5  and  C_9
REMARK    7  A    between atoms: C_10  and  C_11
REMARK    8  A    between atoms: C_10  and  C_12
REMARK    9  A    between atoms: C_13  and  C_14
REMARK                            x       y       z     vdW  Elec       q    Type
REMARK                         _______ _______ _______ _____ _____    ______ ____
ROOT
ATOM      1  C   UNL     1      -5.711 -16.594   3.837  0.00  0.00    +0.000 C 
ATOM      2  C   UNL     1      -5.024 -16.378   2.534  0.00  0.00    +0.000 C 
ATOM      3  C   UNL     1      -6.190 -15.525   2.900  0.00  0.00    +0.000 C 
ATOM      4  H   UNL     1      -5.164 -17.120   1.753  0.00  0.00    +0.000 HD
ATOM      5  H   UNL     1      -5.994 -14.494   3.183  0.00  0.00    +0.000 HD
ENDROOT
BRANCH   1   6
ATOM      6  C   UNL     1      -6.510 -17.846   3.978  0.00  0.00    +0.000 C 
ATOM      7  H   UNL     1      -5.890 -18.749   4.028  0.00  0.00    +0.000 HD
ATOM      8  H   UNL     1      -7.105 -17.818   4.897  0.00  0.00    +0.000 HD
ATOM      9  H   UNL     1      -7.198 -17.961   3.134  0.00  0.00    +0.000 HD
ENDBRANCH   1   6
BRANCH   1  10
ATOM     10  C   UNL     1      -5.071 -16.151   5.111  0.00  0.00    +0.000 C 
ATOM     11  H   UNL     1      -5.603 -16.563   5.975  0.00  0.00    +0.000 HD
ATOM     12  H   UNL     1      -4.019 -16.447   5.191  0.00  0.00    +0.000 HD
ATOM     13  H   UNL     1      -5.098 -15.058   5.191  0.00  0.00    +0.000 HD
ENDBRANCH   1  10
BRANCH   2  14
ATOM     14  C   UNL     1      -3.690 -15.749   2.504  0.00  0.00    +0.000 C 
ATOM     15  C   UNL     1      -2.718 -15.921   1.587  0.00  0.00    +0.000 C 
ATOM     16  H   UNL     1      -3.487 -15.059   3.322  0.00  0.00    +0.000 HD
BRANCH  15  17
ATOM     17  C   UNL     1      -1.404 -15.200   1.704  0.00  0.00    +0.000 C 
ATOM     18  H   UNL     1      -1.569 -14.119   1.764  0.00  0.00    +0.000 HD
ATOM     19  H   UNL     1      -0.874 -15.520   2.607  0.00  0.00    +0.000 HD
ATOM     20  H   UNL     1      -0.747 -15.388   0.848  0.00  0.00    +0.000 HD
ENDBRANCH  15  17
BRANCH  15  21
ATOM     21  C   UNL     1      -2.846 -16.822   0.393  0.00  0.00    +0.000 C 
ATOM     22  H   UNL     1      -2.863 -17.870   0.711  0.00  0.00    +0.000 HD
ATOM     23  H   UNL     1      -3.775 -16.608  -0.144  0.00  0.00    +0.000 HD
ATOM     24  H   UNL     1      -2.022 -16.709  -0.317  0.00  0.00    +0.000 HD
ENDBRANCH  15  21
ENDBRANCH   2  14
BRANCH   3  26
ATOM     25  O   UNL     1      -8.547 -15.369   2.566  0.00  0.00    +0.000 OA
ATOM     26  C   UNL     1      -7.445 -15.699   2.147  0.00  0.00    +0.000 C 
BRANCH  26  27
ATOM     27  O   UNL     1      -7.178 -16.274   0.940  0.00  0.00    +0.000 OA
BRANCH  27  28
ATOM     28  C   UNL     1      -8.271 -16.973   0.336  0.00  0.00    +0.000 C 
ATOM     29  H   UNL     1      -9.216 -16.536   0.675  0.00  0.00    +0.000 HD
ATOM     30  H   UNL     1      -8.201 -16.887  -0.754  0.00  0.00    +0.000 HD
BRANCH  28  31
ATOM     31  C   UNL     1      -8.207 -18.431   0.740  0.00  0.00    +0.000 C 
ATOM     32  H   UNL     1      -9.185 -18.787   1.076  0.00  0.00    +0.000 HD
ATOM     33  H   UNL     1      -7.874 -19.049  -0.100  0.00  0.00    +0.000 HD
ATOM     34  H   UNL     1      -7.481 -18.575   1.548  0.00  0.00    +0.000 HD
ENDBRANCH  28  31
ENDBRANCH  27  28
ENDBRANCH  26  27
ENDBRANCH   3  26
TORSDOF 9
ENDMDL
MODEL 7
REMARK VINA RESULT:    -4.603     14.610     16.721
REMARK INTER + INTRA:          -6.798
REMARK INTER:                  -6.352
REMARK INTRA:                  -0.446
REMARK UNBOUND:                -0.446
REMARK  Name = 7334
REMARK  9 active torsions:
REMARK  status: ('A' for Active; 'I' for Inactive)
REMARK    1  A    between atoms: O_1  and  C_9
REMARK    2  A    between atoms: O_1  and  C_13
REMARK    3  A    between atoms: C_3  and  C_6
REMARK    4  A    between atoms: C_3  and  C_7
REMARK    5  A    between atoms: C_4  and  C_8
REMARK    6  A    between atoms: C_5  and  C_9
REMARK    7  A    between atoms: C_10  and  C_11
REMARK    8  A    between atoms: C_10  and  C_12
REMARK    9  A    between atoms: C_13  and  C_14
REMARK                            x       y       z     vdW  Elec       q    Type
REMARK                         _______ _______ _______ _____ _____    ______ ____
ROOT
ATOM      1  C   UNL     1      -7.646  12.660   4.811  0.00  0.00    +0.000 C 
ATOM      2  C   UNL     1      -8.754  13.370   4.112  0.00  0.00    +0.000 C 
ATOM      3  C   UNL     1      -8.890  13.041   5.560  0.00  0.00    +0.000 C 
ATOM      4  H   UNL     1      -9.357  12.807   3.405  0.00  0.00    +0.000 HD
ATOM      5  H   UNL     1      -8.807  13.856   6.274  0.00  0.00    +0.000 HD
ENDROOT
BRANCH   1   6
ATOM      6  C   UNL     1      -7.427  11.230   4.447  0.00  0.00    +0.000 C 
ATOM      7  H   UNL     1      -6.850  11.104   3.524  0.00  0.00    +0.000 HD
ATOM      8  H   UNL     1      -6.876  10.715   5.241  0.00  0.00    +0.000 HD
ATOM      9  H   UNL     1      -8.385  10.716   4.314  0.00  0.00    +0.000 HD
ENDBRANCH   1   6
BRANCH   1  10
ATOM     10  C   UNL     1      -6.388  13.384   5.161  0.00  0.00    +0.000 C 
ATOM     11  H   UNL     1      -6.464  13.831   6.158  0.00  0.00    +0.000 HD
ATOM     12  H   UNL     1      -5.502  12.741   5.147  0.00  0.00    +0.000 HD
ATOM     13  H   UNL     1      -6.203  14.193   4.445  0.00  0.00    +0.000 HD
ENDBRANCH   1  10
BRANCH   2  14
ATOM     14  C   UNL     1      -8.595  14.788   3.738  0.00  0.00    +0.000 C 
ATOM     15  C   UNL     1      -9.090  15.415   2.653  0.00  0.00    +0.000 C 
ATOM     16  H   UNL     1      -8.013  15.387   4.438  0.00  0.00    +0.000 HD
BRANCH  15  17
ATOM     17  C   UNL     1      -8.833  16.877   2.415  0.00  0.00    +0.000 C 
ATOM     18  H   UNL     1      -8.027  17.006   1.685  0.00  0.00    +0.000 HD
ATOM     19  H   UNL     1      -9.735  17.362   2.027  0.00  0.00    +0.000 HD
ATOM     20  H   UNL     1      -8.540  17.403   3.329  0.00  0.00    +0.000 HD
ENDBRANCH  15  17
BRANCH  15  21
ATOM     21  C   UNL     1      -9.923  14.736   1.604  0.00  0.00    +0.000 C 
ATOM     22  H   UNL     1     -10.896  15.231   1.515  0.00  0.00    +0.000 HD
ATOM     23  H   UNL     1      -9.420  14.785   0.633  0.00  0.00    +0.000 HD
ATOM     24  H   UNL     1     -10.111  13.682   1.825  0.00  0.00    +0.000 HD
ENDBRANCH  15  21
ENDBRANCH   2  14
BRANCH   3  26
ATOM     25  O   UNL     1     -10.831  11.686   5.269  0.00  0.00    +0.000 OA
ATOM     26  C   UNL     1      -9.870  12.012   5.952  0.00  0.00    +0.000 C 
BRANCH  26  27
ATOM     27  O   UNL     1      -9.532  11.501   7.170  0.00  0.00    +0.000 OA
BRANCH  27  28
ATOM     28  C   UNL     1      -9.972  10.163   7.419  0.00  0.00    +0.000 C 
ATOM     29  H   UNL     1     -10.640  10.153   8.287  0.00  0.00    +0.000 HD
ATOM     30  H   UNL     1     -10.510   9.786   6.542  0.00  0.00    +0.000 HD
BRANCH  28  31
ATOM     31  C   UNL     1      -8.766   9.290   7.692  0.00  0.00    +0.000 C 
ATOM     32  H   UNL     1      -8.816   8.855   8.695  0.00  0.00    +0.000 HD
ATOM     33  H   UNL     1      -8.701   8.481   6.958  0.00  0.00    +0.000 HD
ATOM     34  H   UNL     1      -7.841   9.872   7.606  0.00  0.00    +0.000 HD
ENDBRANCH  28  31
ENDBRANCH  27  28
ENDBRANCH  26  27
ENDBRANCH   3  26
TORSDOF 9
ENDMDL
MODEL 8
REMARK VINA RESULT:    -4.599     15.269     17.448
REMARK INTER + INTRA:          -6.792
REMARK INTER:                  -6.371
REMARK INTRA:                  -0.421
REMARK UNBOUND:                -0.446
REMARK  Name = 7334
REMARK  9 active torsions:
REMARK  status: ('A' for Active; 'I' for Inactive)
REMARK    1  A    between atoms: O_1  and  C_9
REMARK    2  A    between atoms: O_1  and  C_13
REMARK    3  A    between atoms: C_3  and  C_6
REMARK    4  A    between atoms: C_3  and  C_7
REMARK    5  A    between atoms: C_4  and  C_8
REMARK    6  A    between atoms: C_5  and  C_9
REMARK    7  A    between atoms: C_10  and  C_11
REMARK    8  A    between atoms: C_10  and  C_12
REMARK    9  A    between atoms: C_13  and  C_14
REMARK                            x       y       z     vdW  Elec       q    Type
REMARK                         _______ _______ _______ _____ _____    ______ ____
ROOT
ATOM      1  C   UNL     1      -7.902  10.238   8.999  0.00  0.00    +0.000 C 
ATOM      2  C   UNL     1      -8.406  10.718   7.682  0.00  0.00    +0.000 C 
ATOM      3  C   UNL     1      -9.274  10.835   8.888  0.00  0.00    +0.000 C 
ATOM      4  H   UNL     1      -8.673   9.976   6.935  0.00  0.00    +0.000 HD
ATOM      5  H   UNL     1      -9.420  11.824   9.313  0.00  0.00    +0.000 HD
ENDROOT
BRANCH   1   6
ATOM      6  C   UNL     1      -7.763   8.763   9.171  0.00  0.00    +0.000 C 
ATOM      7  H   UNL     1      -8.503   8.337   9.858  0.00  0.00    +0.000 HD
ATOM      8  H   UNL     1      -7.892   8.254   8.210  0.00  0.00    +0.000 HD
ATOM      9  H   UNL     1      -6.769   8.512   9.554  0.00  0.00    +0.000 HD
ENDBRANCH   1   6
BRANCH   1  10
ATOM     10  C   UNL     1      -6.873  11.022   9.744  0.00  0.00    +0.000 C 
ATOM     11  H   UNL     1      -5.867  10.769   9.395  0.00  0.00    +0.000 HD
ATOM     12  H   UNL     1      -7.000  12.106   9.645  0.00  0.00    +0.000 HD
ATOM     13  H   UNL     1      -6.923  10.796  10.815  0.00  0.00    +0.000 HD
ENDBRANCH   1  10
BRANCH   2  14
ATOM     14  C   UNL     1      -7.864  11.959   7.098  0.00  0.00    +0.000 C 
ATOM     15  C   UNL     1      -7.512  12.182   5.817  0.00  0.00    +0.000 C 
ATOM     16  H   UNL     1      -7.752  12.787   7.797  0.00  0.00    +0.000 HD
BRANCH  15  17
ATOM     17  C   UNL     1      -6.970  13.515   5.380  0.00  0.00    +0.000 C 
ATOM     18  H   UNL     1      -5.908  13.594   5.635  0.00  0.00    +0.000 HD
ATOM     19  H   UNL     1      -7.077  13.631   4.297  0.00  0.00    +0.000 HD
ATOM     20  H   UNL     1      -7.488  14.353   5.858  0.00  0.00    +0.000 HD
ENDBRANCH  15  17
BRANCH  15  21
ATOM     21  C   UNL     1      -7.621  11.152   4.729  0.00  0.00    +0.000 C 
ATOM     22  H   UNL     1      -6.692  10.577   4.659  0.00  0.00    +0.000 HD
ATOM     23  H   UNL     1      -8.442  10.461   4.946  0.00  0.00    +0.000 HD
ATOM     24  H   UNL     1      -7.811  11.590   3.745  0.00  0.00    +0.000 HD
ENDBRANCH  15  21
ENDBRANCH   2  14
BRANCH   3  26
ATOM     25  O   UNL     1     -10.946   9.370   8.022  0.00  0.00    +0.000 OA
ATOM     26  C   UNL     1     -10.470   9.977   8.972  0.00  0.00    +0.000 C 
BRANCH  26  27
ATOM     27  O   UNL     1     -10.942   9.976  10.251  0.00  0.00    +0.000 OA
BRANCH  27  28
ATOM     28  C   UNL     1     -10.795   8.742  10.960  0.00  0.00    +0.000 C 
ATOM     29  H   UNL     1     -11.697   8.134  10.826  0.00  0.00    +0.000 HD
ATOM     30  H   UNL     1      -9.929   8.197  10.569  0.00  0.00    +0.000 HD
BRANCH  28  31
ATOM     31  C   UNL     1     -10.592   9.039  12.430  0.00  0.00    +0.000 C 
ATOM     32  H   UNL     1     -11.202   8.376  13.052  0.00  0.00    +0.000 HD
ATOM     33  H   UNL     1      -9.540   8.915  12.706  0.00  0.00    +0.000 HD
ATOM     34  H   UNL     1     -10.859  10.078  12.654  0.00  0.00    +0.000 HD
ENDBRANCH  28  31
ENDBRANCH  27  28
ENDBRANCH  26  27
ENDBRANCH   3  26
TORSDOF 9
ENDMDL
MODEL 9
REMARK VINA RESULT:    -4.598     16.939     18.013
REMARK INTER + INTRA:          -6.790
REMARK INTER:                  -6.026
REMARK INTRA:                  -0.764
REMARK UNBOUND:                -0.446
REMARK  Name = 7334
REMARK  9 active torsions:
REMARK  status: ('A' for Active; 'I' for Inactive)
REMARK    1  A    between atoms: O_1  and  C_9
REMARK    2  A    between atoms: O_1  and  C_13
REMARK    3  A    between atoms: C_3  and  C_6
REMARK    4  A    between atoms: C_3  and  C_7
REMARK    5  A    between atoms: C_4  and  C_8
REMARK    6  A    between atoms: C_5  and  C_9
REMARK    7  A    between atoms: C_10  and  C_11
REMARK    8  A    between atoms: C_10  and  C_12
REMARK    9  A    between atoms: C_13  and  C_14
REMARK                            x       y       z     vdW  Elec       q    Type
REMARK                         _______ _______ _______ _____ _____    ______ ____
ROOT
ATOM      1  C   UNL     1      -0.433  -0.169 -14.062  0.00  0.00    +0.000 C 
ATOM      2  C   UNL     1       0.029  -0.398 -12.664  0.00  0.00    +0.000 C 
ATOM      3  C   UNL     1       0.552   0.769 -13.430  0.00  0.00    +0.000 C 
ATOM      4  H   UNL     1       0.706  -1.227 -12.479  0.00  0.00    +0.000 HD
ATOM      5  H   UNL     1       0.189   1.757 -13.157  0.00  0.00    +0.000 HD
ENDROOT
BRANCH   1   6
ATOM      6  C   UNL     1       0.044  -1.134 -15.095  0.00  0.00    +0.000 C 
ATOM      7  H   UNL     1      -0.048  -2.181 -14.783  0.00  0.00    +0.000 HD
ATOM      8  H   UNL     1      -0.537  -1.024 -16.017  0.00  0.00    +0.000 HD
ATOM      9  H   UNL     1       1.096  -0.951 -15.337  0.00  0.00    +0.000 HD
ENDBRANCH   1   6
BRANCH   1  10
ATOM     10  C   UNL     1      -1.806   0.354 -14.327  0.00  0.00    +0.000 C 
ATOM     11  H   UNL     1      -1.881   0.740 -15.349  0.00  0.00    +0.000 HD
ATOM     12  H   UNL     1      -2.589  -0.400 -14.193  0.00  0.00    +0.000 HD
ATOM     13  H   UNL     1      -2.038   1.176 -13.640  0.00  0.00    +0.000 HD
ENDBRANCH   1  10
BRANCH   2  14
ATOM     14  C   UNL     1      -0.885  -0.132 -11.537  0.00  0.00    +0.000 C 
ATOM     15  C   UNL     1      -1.762  -0.982 -10.970  0.00  0.00    +0.000 C 
ATOM     16  H   UNL     1      -0.822   0.873 -11.120  0.00  0.00    +0.000 HD
BRANCH  15  17
ATOM     17  C   UNL     1      -2.629  -0.550  -9.819  0.00  0.00    +0.000 C 
ATOM     18  H   UNL     1      -2.035  -0.490  -8.900  0.00  0.00    +0.000 HD
ATOM     19  H   UNL     1      -3.061   0.436 -10.019  0.00  0.00    +0.000 HD
ATOM     20  H   UNL     1      -3.455  -1.244  -9.635  0.00  0.00    +0.000 HD
ENDBRANCH  15  17
BRANCH  15  21
ATOM     21  C   UNL     1      -1.957  -2.403 -11.415  0.00  0.00    +0.000 C 
ATOM     22  H   UNL     1      -1.133  -2.710 -12.069  0.00  0.00    +0.000 HD
ATOM     23  H   UNL     1      -1.978  -3.071 -10.549  0.00  0.00    +0.000 HD
ATOM     24  H   UNL     1      -2.888  -2.552 -11.969  0.00  0.00    +0.000 HD
ENDBRANCH  15  21
ENDBRANCH   2  14
BRANCH   3  26
ATOM     25  O   UNL     1       2.420   1.429 -14.758  0.00  0.00    +0.000 OA
ATOM     26  C   UNL     1       1.967   0.756 -13.843  0.00  0.00    +0.000 C 
BRANCH  26  27
ATOM     27  O   UNL     1       2.665  -0.109 -13.054  0.00  0.00    +0.000 OA
BRANCH  27  28
ATOM     28  C   UNL     1       3.651  -0.898 -13.727  0.00  0.00    +0.000 C 
ATOM     29  H   UNL     1       3.689  -0.610 -14.784  0.00  0.00    +0.000 HD
ATOM     30  H   UNL     1       4.631  -0.726 -13.268  0.00  0.00    +0.000 HD
BRANCH  28  31
ATOM     31  C   UNL     1       3.279  -2.360 -13.608  0.00  0.00    +0.000 C 
ATOM     32  H   UNL     1       4.152  -3.000 -13.763  0.00  0.00    +0.000 HD
ATOM     33  H   UNL     1       2.856  -2.571 -12.620  0.00  0.00    +0.000 HD
ATOM     34  H   UNL     1       2.512  -2.624 -14.344  0.00  0.00    +0.000 HD
ENDBRANCH  28  31
ENDBRANCH  27  28
ENDBRANCH  26  27
ENDBRANCH   3  26
TORSDOF 9
ENDMDL
MODEL 10
REMARK VINA RESULT:    -4.503     14.285     16.496
REMARK INTER + INTRA:          -6.660
REMARK INTER:                  -6.047
REMARK INTRA:                  -0.613
REMARK UNBOUND:                -0.446
REMARK  Name = 7334
REMARK  9 active torsions:
REMARK  status: ('A' for Active; 'I' for Inactive)
REMARK    1  A    between atoms: O_1  and  C_9
REMARK    2  A    between atoms: O_1  and  C_13
REMARK    3  A    between atoms: C_3  and  C_6
REMARK    4  A    between atoms: C_3  and  C_7
REMARK    5  A    between atoms: C_4  and  C_8
REMARK    6  A    between atoms: C_5  and  C_9
REMARK    7  A    between atoms: C_10  and  C_11
REMARK    8  A    between atoms: C_10  and  C_12
REMARK    9  A    between atoms: C_13  and  C_14
REMARK                            x       y       z     vdW  Elec       q    Type
REMARK                         _______ _______ _______ _____ _____    ______ ____
ROOT
ATOM      1  C   UNL     1      -3.014   7.929 -10.086  0.00  0.00    +0.000 C 
ATOM      2  C   UNL     1      -3.897   7.599 -11.239  0.00  0.00    +0.000 C 
ATOM      3  C   UNL     1      -2.493   7.099 -11.223  0.00  0.00    +0.000 C 
ATOM      4  H   UNL     1      -4.145   8.393 -11.937  0.00  0.00    +0.000 HD
ATOM      5  H   UNL     1      -2.334   6.042 -11.031  0.00  0.00    +0.000 HD
ENDROOT
BRANCH   1   6
ATOM      6  C   UNL     1      -2.572   9.348  -9.960  0.00  0.00    +0.000 C 
ATOM      7  H   UNL     1      -1.560   9.450  -9.551  0.00  0.00    +0.000 HD
ATOM      8  H   UNL     1      -2.569   9.834 -10.942  0.00  0.00    +0.000 HD
ATOM      9  H   UNL     1      -3.252   9.907  -9.309  0.00  0.00    +0.000 HD
ENDBRANCH   1   6
BRANCH   1  10
ATOM     10  C   UNL     1      -3.202   7.247  -8.771  0.00  0.00    +0.000 C 
ATOM     11  H   UNL     1      -2.867   7.890  -7.951  0.00  0.00    +0.000 HD
ATOM     12  H   UNL     1      -4.243   6.967  -8.575  0.00  0.00    +0.000 HD
ATOM     13  H   UNL     1      -2.614   6.323  -8.734  0.00  0.00    +0.000 HD
ENDBRANCH   1  10
BRANCH   2  14
ATOM     14  C   UNL     1      -4.983   6.614 -11.072  0.00  0.00    +0.000 C 
ATOM     15  C   UNL     1      -6.159   6.565 -11.727  0.00  0.00    +0.000 C 
ATOM     16  H   UNL     1      -4.789   5.835 -10.335  0.00  0.00    +0.000 HD
BRANCH  15  17
ATOM     17  C   UNL     1      -7.166   5.487 -11.435  0.00  0.00    +0.000 C 
ATOM     18  H   UNL     1      -8.170   5.820 -11.720  0.00  0.00    +0.000 HD
ATOM     19  H   UNL     1      -6.927   4.581 -12.003  0.00  0.00    +0.000 HD
ATOM     20  H   UNL     1      -7.195   5.217 -10.375  0.00  0.00    +0.000 HD
ENDBRANCH  15  17
BRANCH  15  21
ATOM     21  C   UNL     1      -6.570   7.552 -12.781  0.00  0.00    +0.000 C 
ATOM     22  H   UNL     1      -5.685   7.962 -13.280  0.00  0.00    +0.000 HD
ATOM     23  H   UNL     1      -7.195   7.061 -13.534  0.00  0.00    +0.000 HD
ATOM     24  H   UNL     1      -7.139   8.394 -12.378  0.00  0.00    +0.000 HD
ENDBRANCH  15  21
ENDBRANCH   2  14
BRANCH   3  26
ATOM     25  O   UNL     1      -0.335   7.768 -11.988  0.00  0.00    +0.000 OA
ATOM     26  C   UNL     1      -1.538   7.672 -12.188  0.00  0.00    +0.000 C 
BRANCH  26  27
ATOM     27  O   UNL     1      -2.204   8.067 -13.310  0.00  0.00    +0.000 OA
BRANCH  27  28
ATOM     28  C   UNL     1      -1.975   7.268 -14.475  0.00  0.00    +0.000 C 
ATOM     29  H   UNL     1      -1.810   7.921 -15.339  0.00  0.00    +0.000 HD
ATOM     30  H   UNL     1      -1.090   6.641 -14.319  0.00  0.00    +0.000 HD
BRANCH  28  31
ATOM     31  C   UNL     1      -3.186   6.393 -14.719  0.00  0.00    +0.000 C 
ATOM     32  H   UNL     1      -3.216   5.560 -14.009  0.00  0.00    +0.000 HD
ATOM     33  H   UNL     1      -4.108   6.975 -14.621  0.00  0.00    +0.000 HD
ATOM     34  H   UNL     1      -3.171   5.989 -15.737  0.00  0.00    +0.000 HD
ENDBRANCH  28  31
ENDBRANCH  27  28
ENDBRANCH  26  27
ENDBRANCH   3  26
TORSDOF 9
ENDMDL
