MODEL 1
REMARK VINA RESULT:    -3.631      0.000      0.000
REMARK INTER + INTRA:          -4.904
REMARK INTER:                  -4.688
REMARK INTRA:                  -0.216
REMARK UNBOUND:                -0.212
REMARK  Name = 7762
REMARK  6 active torsions:
REMARK  status: ('A' for Active; 'I' for Inactive)
REMARK    1  A    between atoms: O_1  and  C_6
REMARK    2  A    between atoms: O_1  and  C_7
REMARK    3  A    between atoms: C_3  and  C_4
REMARK    4  A    between atoms: C_3  and  C_5
REMARK    5  A    between atoms: C_4  and  C_6
REMARK    6  A    between atoms: C_7  and  C_8
REMARK                            x       y       z     vdW  Elec       q    Type
REMARK                         _______ _______ _______ _____ _____    ______ ____
ROOT
ATOM      1  C   UNL     1      -3.152   6.830 -11.246  0.00  0.00    +0.000 C 
ATOM      2  H   UNL     1      -3.609   5.834 -11.274  0.00  0.00    +0.000 HD
ATOM      3  H   UNL     1      -3.745   7.512 -11.868  0.00  0.00    +0.000 HD
ENDROOT
BRANCH   1   4
ATOM      4  C   UNL     1      -1.725   6.758 -11.783  0.00  0.00    +0.000 C 
ATOM      5  H   UNL     1      -1.069   7.405 -11.188  0.00  0.00    +0.000 HD
ATOM      6  H   UNL     1      -1.338   5.736 -11.680  0.00  0.00    +0.000 HD
BRANCH   4   7
ATOM      7  C   UNL     1      -1.654   7.173 -13.242  0.00  0.00    +0.000 C 
ATOM      8  H   UNL     1      -1.808   6.305 -13.892  0.00  0.00    +0.000 HD
ATOM      9  H   UNL     1      -2.426   7.914 -13.478  0.00  0.00    +0.000 HD
ATOM     10  H   UNL     1      -0.678   7.607 -13.480  0.00  0.00    +0.000 HD
ENDBRANCH   4   7
ENDBRANCH   1   4
BRANCH   1  12
ATOM     11  O   UNL     1      -3.195   6.617  -8.825  0.00  0.00    +0.000 OA
ATOM     12  C   UNL     1      -3.198   7.328  -9.820  0.00  0.00    +0.000 C 
BRANCH  12  13
ATOM     13  O   UNL     1      -3.239   8.694  -9.830  0.00  0.00    +0.000 OA
BRANCH  13  14
ATOM     14  C   UNL     1      -2.112   9.348  -9.237  0.00  0.00    +0.000 C 
ATOM     15  H   UNL     1      -2.460  10.088  -8.509  0.00  0.00    +0.000 HD
ATOM     16  H   UNL     1      -1.485   8.606  -8.730  0.00  0.00    +0.000 HD
BRANCH  14  17
ATOM     17  C   UNL     1      -1.314  10.035 -10.325  0.00  0.00    +0.000 C 
ATOM     18  H   UNL     1      -1.910  10.150 -11.233  0.00  0.00    +0.000 HD
ATOM     19  H   UNL     1      -0.982  11.024  -9.992  0.00  0.00    +0.000 HD
ATOM     20  H   UNL     1      -0.412   9.460 -10.562  0.00  0.00    +0.000 HD
ENDBRANCH  14  17
ENDBRANCH  13  14
ENDBRANCH  12  13
ENDBRANCH   1  12
TORSDOF 6
ENDMDL
MODEL 2
REMARK VINA RESULT:    -3.575      2.038      3.652
REMARK INTER + INTRA:          -4.832
REMARK INTER:                  -4.531
REMARK INTRA:                  -0.301
REMARK UNBOUND:                -0.212
REMARK  Name = 7762
REMARK  6 active torsions:
REMARK  status: ('A' for Active; 'I' for Inactive)
REMARK    1  A    between atoms: O_1  and  C_6
REMARK    2  A    between atoms: O_1  and  C_7
REMARK    3  A    between atoms: C_3  and  C_4
REMARK    4  A    between atoms: C_3  and  C_5
REMARK    5  A    between atoms: C_4  and  C_6
REMARK    6  A    between atoms: C_7  and  C_8
REMARK                            x       y       z     vdW  Elec       q    Type
REMARK                         _______ _______ _______ _____ _____    ______ ____
ROOT
ATOM      1  C   UNL     1      -3.040   9.470 -10.099  0.00  0.00    +0.000 C 
ATOM      2  H   UNL     1      -3.449  10.439  -9.787  0.00  0.00    +0.000 HD
ATOM      3  H   UNL     1      -3.737   8.997 -10.799  0.00  0.00    +0.000 HD
ENDROOT
BRANCH   1   4
ATOM      4  C   UNL     1      -2.851   8.573  -8.877  0.00  0.00    +0.000 C 
ATOM      5  H   UNL     1      -1.800   8.581  -8.568  0.00  0.00    +0.000 HD
ATOM      6  H   UNL     1      -3.432   8.964  -8.033  0.00  0.00    +0.000 HD
BRANCH   4   7
ATOM      7  C   UNL     1      -3.284   7.145  -9.161  0.00  0.00    +0.000 C 
ATOM      8  H   UNL     1      -3.213   6.539  -8.253  0.00  0.00    +0.000 HD
ATOM      9  H   UNL     1      -4.321   7.111  -9.511  0.00  0.00    +0.000 HD
ATOM     10  H   UNL     1      -2.648   6.688  -9.926  0.00  0.00    +0.000 HD
ENDBRANCH   4   7
ENDBRANCH   1   4
BRANCH   1  12
ATOM     11  O   UNL     1      -0.794  10.360 -10.376  0.00  0.00    +0.000 OA
ATOM     12  C   UNL     1      -1.738   9.723 -10.823  0.00  0.00    +0.000 C 
BRANCH  12  13
ATOM     13  O   UNL     1      -1.791   9.123 -12.050  0.00  0.00    +0.000 OA
BRANCH  13  14
ATOM     14  C   UNL     1      -0.865   8.050 -12.251  0.00  0.00    +0.000 C 
ATOM     15  H   UNL     1      -0.231   8.271 -13.116  0.00  0.00    +0.000 HD
ATOM     16  H   UNL     1      -0.238   7.938 -11.359  0.00  0.00    +0.000 HD
BRANCH  14  17
ATOM     17  C   UNL     1      -1.639   6.772 -12.496  0.00  0.00    +0.000 C 
ATOM     18  H   UNL     1      -2.137   6.798 -13.469  0.00  0.00    +0.000 HD
ATOM     19  H   UNL     1      -0.971   5.905 -12.464  0.00  0.00    +0.000 HD
ATOM     20  H   UNL     1      -2.393   6.622 -11.716  0.00  0.00    +0.000 HD
ENDBRANCH  14  17
ENDBRANCH  13  14
ENDBRANCH  12  13
ENDBRANCH   1  12
TORSDOF 6
ENDMDL
MODEL 3
REMARK VINA RESULT:    -3.560      1.860      2.716
REMARK INTER + INTRA:          -4.813
REMARK INTER:                  -4.663
REMARK INTRA:                  -0.150
REMARK UNBOUND:                -0.212
REMARK  Name = 7762
REMARK  6 active torsions:
REMARK  status: ('A' for Active; 'I' for Inactive)
REMARK    1  A    between atoms: O_1  and  C_6
REMARK    2  A    between atoms: O_1  and  C_7
REMARK    3  A    between atoms: C_3  and  C_4
REMARK    4  A    between atoms: C_3  and  C_5
REMARK    5  A    between atoms: C_4  and  C_6
REMARK    6  A    between atoms: C_7  and  C_8
REMARK                            x       y       z     vdW  Elec       q    Type
REMARK                         _______ _______ _______ _____ _____    ______ ____
ROOT
ATOM      1  C   UNL     1      -2.362   7.915 -10.464  0.00  0.00    +0.000 C 
ATOM      2  H   UNL     1      -2.870   8.103 -11.417  0.00  0.00    +0.000 HD
ATOM      3  H   UNL     1      -1.354   7.534 -10.666  0.00  0.00    +0.000 HD
ENDROOT
BRANCH   1   4
ATOM      4  C   UNL     1      -3.147   6.885  -9.656  0.00  0.00    +0.000 C 
ATOM      5  H   UNL     1      -2.616   5.926  -9.657  0.00  0.00    +0.000 HD
ATOM      6  H   UNL     1      -3.218   7.206  -8.609  0.00  0.00    +0.000 HD
BRANCH   4   7
ATOM      7  C   UNL     1      -4.547   6.687 -10.212  0.00  0.00    +0.000 C 
ATOM      8  H   UNL     1      -4.749   7.421 -10.999  0.00  0.00    +0.000 HD
ATOM      9  H   UNL     1      -4.661   5.687 -10.643  0.00  0.00    +0.000 HD
ATOM     10  H   UNL     1      -5.301   6.812  -9.428  0.00  0.00    +0.000 HD
ENDBRANCH   4   7
ENDBRANCH   1   4
BRANCH   1  12
ATOM     11  O   UNL     1      -2.828   9.529  -8.706  0.00  0.00    +0.000 OA
ATOM     12  C   UNL     1      -2.234   9.232  -9.733  0.00  0.00    +0.000 C 
BRANCH  12  13
ATOM     13  O   UNL     1      -1.347  10.026 -10.405  0.00  0.00    +0.000 OA
BRANCH  13  14
ATOM     14  C   UNL     1      -0.783   9.453 -11.589  0.00  0.00    +0.000 C 
ATOM     15  H   UNL     1       0.255   9.161 -11.395  0.00  0.00    +0.000 HD
ATOM     16  H   UNL     1      -1.362   8.568 -11.878  0.00  0.00    +0.000 HD
BRANCH  14  17
ATOM     17  C   UNL     1      -0.827  10.478 -12.702  0.00  0.00    +0.000 C 
ATOM     18  H   UNL     1      -1.652  11.180 -12.553  0.00  0.00    +0.000 HD
ATOM     19  H   UNL     1       0.112  11.040 -12.746  0.00  0.00    +0.000 HD
ATOM     20  H   UNL     1      -0.950   9.988 -13.673  0.00  0.00    +0.000 HD
ENDBRANCH  14  17
ENDBRANCH  13  14
ENDBRANCH  12  13
ENDBRANCH   1  12
TORSDOF 6
ENDMDL
MODEL 4
REMARK VINA RESULT:    -3.529      1.759      2.888
REMARK INTER + INTRA:          -4.772
REMARK INTER:                  -4.649
REMARK INTRA:                  -0.123
REMARK UNBOUND:                -0.212
REMARK  Name = 7762
REMARK  6 active torsions:
REMARK  status: ('A' for Active; 'I' for Inactive)
REMARK    1  A    between atoms: O_1  and  C_6
REMARK    2  A    between atoms: O_1  and  C_7
REMARK    3  A    between atoms: C_3  and  C_4
REMARK    4  A    between atoms: C_3  and  C_5
REMARK    5  A    between atoms: C_4  and  C_6
REMARK    6  A    between atoms: C_7  and  C_8
REMARK                            x       y       z     vdW  Elec       q    Type
REMARK                         _______ _______ _______ _____ _____    ______ ____
ROOT
ATOM      1  C   UNL     1      -3.980   6.977 -10.327  0.00  0.00    +0.000 C 
ATOM      2  H   UNL     1      -4.585   7.865 -10.544  0.00  0.00    +0.000 HD
ATOM      3  H   UNL     1      -4.267   6.174 -11.017  0.00  0.00    +0.000 HD
ENDROOT
BRANCH   1   4
ATOM      4  C   UNL     1      -4.221   6.527  -8.888  0.00  0.00    +0.000 C 
ATOM      5  H   UNL     1      -3.463   5.791  -8.596  0.00  0.00    +0.000 HD
ATOM      6  H   UNL     1      -4.114   7.379  -8.207  0.00  0.00    +0.000 HD
BRANCH   4   7
ATOM      7  C   UNL     1      -5.604   5.922  -8.717  0.00  0.00    +0.000 C 
ATOM      8  H   UNL     1      -5.812   5.213  -9.525  0.00  0.00    +0.000 HD
ATOM      9  H   UNL     1      -5.683   5.385  -7.766  0.00  0.00    +0.000 HD
ATOM     10  H   UNL     1      -6.377   6.698  -8.738  0.00  0.00    +0.000 HD
ENDBRANCH   4   7
ENDBRANCH   1   4
BRANCH   1  12
ATOM     11  O   UNL     1      -1.771   6.695 -11.304  0.00  0.00    +0.000 OA
ATOM     12  C   UNL     1      -2.530   7.323 -10.578  0.00  0.00    +0.000 C 
BRANCH  12  13
ATOM     13  O   UNL     1      -2.215   8.446  -9.867  0.00  0.00    +0.000 OA
BRANCH  13  14
ATOM     14  C   UNL     1      -2.376   9.684 -10.569  0.00  0.00    +0.000 C 
ATOM     15  H   UNL     1      -3.025   9.530 -11.438  0.00  0.00    +0.000 HD
ATOM     16  H   UNL     1      -2.830  10.425  -9.902  0.00  0.00    +0.000 HD
BRANCH  14  17
ATOM     17  C   UNL     1      -1.017  10.171 -11.025  0.00  0.00    +0.000 C 
ATOM     18  H   UNL     1      -0.418   9.346 -11.418  0.00  0.00    +0.000 HD
ATOM     19  H   UNL     1      -1.123  10.934 -11.803  0.00  0.00    +0.000 HD
ATOM     20  H   UNL     1      -0.476  10.638 -10.194  0.00  0.00    +0.000 HD
ENDBRANCH  14  17
ENDBRANCH  13  14
ENDBRANCH  12  13
ENDBRANCH   1  12
TORSDOF 6
ENDMDL
MODEL 5
REMARK VINA RESULT:    -3.528     13.200     14.492
REMARK INTER + INTRA:          -4.772
REMARK INTER:                  -4.648
REMARK INTRA:                  -0.123
REMARK UNBOUND:                -0.212
REMARK  Name = 7762
REMARK  6 active torsions:
REMARK  status: ('A' for Active; 'I' for Inactive)
REMARK    1  A    between atoms: O_1  and  C_6
REMARK    2  A    between atoms: O_1  and  C_7
REMARK    3  A    between atoms: C_3  and  C_4
REMARK    4  A    between atoms: C_3  and  C_5
REMARK    5  A    between atoms: C_4  and  C_6
REMARK    6  A    between atoms: C_7  and  C_8
REMARK                            x       y       z     vdW  Elec       q    Type
REMARK                         _______ _______ _______ _____ _____    ______ ____
ROOT
ATOM      1  C   UNL     1       4.942   8.631   1.779  0.00  0.00    +0.000 C 
ATOM      2  H   UNL     1       4.489   7.723   1.363  0.00  0.00    +0.000 HD
ATOM      3  H   UNL     1       5.324   9.247   0.957  0.00  0.00    +0.000 HD
ENDROOT
BRANCH   1   4
ATOM      4  C   UNL     1       6.090   8.252   2.712  0.00  0.00    +0.000 C 
ATOM      5  H   UNL     1       7.043   8.313   2.174  0.00  0.00    +0.000 HD
ATOM      6  H   UNL     1       6.149   8.967   3.542  0.00  0.00    +0.000 HD
BRANCH   4   7
ATOM      7  C   UNL     1       5.915   6.851   3.273  0.00  0.00    +0.000 C 
ATOM      8  H   UNL     1       6.717   6.197   2.916  0.00  0.00    +0.000 HD
ATOM      9  H   UNL     1       5.946   6.860   4.368  0.00  0.00    +0.000 HD
ATOM     10  H   UNL     1       4.959   6.420   2.959  0.00  0.00    +0.000 HD
ENDBRANCH   4   7
ENDBRANCH   1   4
BRANCH   1  12
ATOM     11  O   UNL     1       3.625   9.347   3.693  0.00  0.00    +0.000 OA
ATOM     12  C   UNL     1       3.862   9.409   2.494  0.00  0.00    +0.000 C 
BRANCH  12  13
ATOM     13  O   UNL     1       3.204  10.189   1.586  0.00  0.00    +0.000 OA
BRANCH  13  14
ATOM     14  C   UNL     1       3.733  10.163   0.255  0.00  0.00    +0.000 C 
ATOM     15  H   UNL     1       4.816  10.010   0.295  0.00  0.00    +0.000 HD
ATOM     16  H   UNL     1       3.270   9.343  -0.305  0.00  0.00    +0.000 HD
BRANCH  14  17
ATOM     17  C   UNL     1       3.426  11.482  -0.422  0.00  0.00    +0.000 C 
ATOM     18  H   UNL     1       3.996  12.296   0.033  0.00  0.00    +0.000 HD
ATOM     19  H   UNL     1       3.669  11.433  -1.488  0.00  0.00    +0.000 HD
ATOM     20  H   UNL     1       2.358  11.713  -0.350  0.00  0.00    +0.000 HD
ENDBRANCH  14  17
ENDBRANCH  13  14
ENDBRANCH  12  13
ENDBRANCH   1  12
TORSDOF 6
ENDMDL
MODEL 6
REMARK VINA RESULT:    -3.513     13.209     14.528
REMARK INTER + INTRA:          -4.752
REMARK INTER:                  -4.658
REMARK INTRA:                  -0.094
REMARK UNBOUND:                -0.212
REMARK  Name = 7762
REMARK  6 active torsions:
REMARK  status: ('A' for Active; 'I' for Inactive)
REMARK    1  A    between atoms: O_1  and  C_6
REMARK    2  A    between atoms: O_1  and  C_7
REMARK    3  A    between atoms: C_3  and  C_4
REMARK    4  A    between atoms: C_3  and  C_5
REMARK    5  A    between atoms: C_4  and  C_6
REMARK    6  A    between atoms: C_7  and  C_8
REMARK                            x       y       z     vdW  Elec       q    Type
REMARK                         _______ _______ _______ _____ _____    ______ ____
ROOT
ATOM      1  C   UNL     1       4.501   9.399   0.515  0.00  0.00    +0.000 C 
ATOM      2  H   UNL     1       5.457   8.871   0.424  0.00  0.00    +0.000 HD
ATOM      3  H   UNL     1       3.739   8.858  -0.060  0.00  0.00    +0.000 HD
ENDROOT
BRANCH   1   4
ATOM      4  C   UNL     1       4.642  10.818  -0.030  0.00  0.00    +0.000 C 
ATOM      5  H   UNL     1       4.564  11.542   0.789  0.00  0.00    +0.000 HD
ATOM      6  H   UNL     1       5.636  10.950  -0.476  0.00  0.00    +0.000 HD
BRANCH   4   7
ATOM      7  C   UNL     1       3.582  11.123  -1.075  0.00  0.00    +0.000 C 
ATOM      8  H   UNL     1       3.302  10.210  -1.609  0.00  0.00    +0.000 HD
ATOM      9  H   UNL     1       2.680  11.536  -0.611  0.00  0.00    +0.000 HD
ATOM     10  H   UNL     1       3.953  11.846  -1.809  0.00  0.00    +0.000 HD
ENDBRANCH   4   7
ENDBRANCH   1   4
BRANCH   1  12
ATOM     11  O   UNL     1       3.100   9.933   2.428  0.00  0.00    +0.000 OA
ATOM     12  C   UNL     1       4.094   9.388   1.970  0.00  0.00    +0.000 C 
BRANCH  12  13
ATOM     13  O   UNL     1       5.015   8.670   2.681  0.00  0.00    +0.000 OA
BRANCH  13  14
ATOM     14  C   UNL     1       4.804   8.629   4.096  0.00  0.00    +0.000 C 
ATOM     15  H   UNL     1       5.374   9.433   4.574  0.00  0.00    +0.000 HD
ATOM     16  H   UNL     1       3.737   8.763   4.310  0.00  0.00    +0.000 HD
BRANCH  14  17
ATOM     17  C   UNL     1       5.267   7.288   4.625  0.00  0.00    +0.000 C 
ATOM     18  H   UNL     1       5.538   7.357   5.681  0.00  0.00    +0.000 HD
ATOM     19  H   UNL     1       4.480   6.536   4.509  0.00  0.00    +0.000 HD
ATOM     20  H   UNL     1       6.134   6.931   4.059  0.00  0.00    +0.000 HD
ENDBRANCH  14  17
ENDBRANCH  13  14
ENDBRANCH  12  13
ENDBRANCH   1  12
TORSDOF 6
ENDMDL
MODEL 7
REMARK VINA RESULT:    -3.497     13.330     14.136
REMARK INTER + INTRA:          -4.731
REMARK INTER:                  -4.384
REMARK INTRA:                  -0.347
REMARK UNBOUND:                -0.212
REMARK  Name = 7762
REMARK  6 active torsions:
REMARK  status: ('A' for Active; 'I' for Inactive)
REMARK    1  A    between atoms: O_1  and  C_6
REMARK    2  A    between atoms: O_1  and  C_7
REMARK    3  A    between atoms: C_3  and  C_4
REMARK    4  A    between atoms: C_3  and  C_5
REMARK    5  A    between atoms: C_4  and  C_6
REMARK    6  A    between atoms: C_7  and  C_8
REMARK                            x       y       z     vdW  Elec       q    Type
REMARK                         _______ _______ _______ _____ _____    ______ ____
ROOT
ATOM      1  C   UNL     1       6.638  11.244  -0.810  0.00  0.00    +0.000 C 
ATOM      2  H   UNL     1       6.415  11.284  -1.883  0.00  0.00    +0.000 HD
ATOM      3  H   UNL     1       7.363  12.030  -0.567  0.00  0.00    +0.000 HD
ENDROOT
BRANCH   1   4
ATOM      4  C   UNL     1       7.225   9.879  -0.456  0.00  0.00    +0.000 C 
ATOM      5  H   UNL     1       6.430   9.124  -0.443  0.00  0.00    +0.000 HD
ATOM      6  H   UNL     1       7.942   9.569  -1.226  0.00  0.00    +0.000 HD
BRANCH   4   7
ATOM      7  C   UNL     1       7.921   9.903   0.893  0.00  0.00    +0.000 C 
ATOM      8  H   UNL     1       7.407   9.242   1.598  0.00  0.00    +0.000 HD
ATOM      9  H   UNL     1       8.959   9.564   0.806  0.00  0.00    +0.000 HD
ATOM     10  H   UNL     1       7.924  10.914   1.315  0.00  0.00    +0.000 HD
ENDBRANCH   4   7
ENDBRANCH   1   4
BRANCH   1  12
ATOM     11  O   UNL     1       5.100  12.572   0.524  0.00  0.00    +0.000 OA
ATOM     12  C   UNL     1       5.361  11.526  -0.054  0.00  0.00    +0.000 C 
BRANCH  12  13
ATOM     13  O   UNL     1       4.552  10.427  -0.127  0.00  0.00    +0.000 OA
BRANCH  13  14
ATOM     14  C   UNL     1       3.655  10.249   0.974  0.00  0.00    +0.000 C 
ATOM     15  H   UNL     1       3.463  11.216   1.449  0.00  0.00    +0.000 HD
ATOM     16  H   UNL     1       2.711   9.828   0.611  0.00  0.00    +0.000 HD
BRANCH  14  17
ATOM     17  C   UNL     1       4.285   9.303   1.974  0.00  0.00    +0.000 C 
ATOM     18  H   UNL     1       5.375   9.312   1.887  0.00  0.00    +0.000 HD
ATOM     19  H   UNL     1       4.010   9.583   2.996  0.00  0.00    +0.000 HD
ATOM     20  H   UNL     1       3.926   8.280   1.817  0.00  0.00    +0.000 HD
ENDBRANCH  14  17
ENDBRANCH  13  14
ENDBRANCH  12  13
ENDBRANCH   1  12
TORSDOF 6
ENDMDL
MODEL 8
REMARK VINA RESULT:    -3.491      1.585      3.028
REMARK INTER + INTRA:          -4.723
REMARK INTER:                  -4.518
REMARK INTRA:                  -0.205
REMARK UNBOUND:                -0.212
REMARK  Name = 7762
REMARK  6 active torsions:
REMARK  status: ('A' for Active; 'I' for Inactive)
REMARK    1  A    between atoms: O_1  and  C_6
REMARK    2  A    between atoms: O_1  and  C_7
REMARK    3  A    between atoms: C_3  and  C_4
REMARK    4  A    between atoms: C_3  and  C_5
REMARK    5  A    between atoms: C_4  and  C_6
REMARK    6  A    between atoms: C_7  and  C_8
REMARK                            x       y       z     vdW  Elec       q    Type
REMARK                         _______ _______ _______ _____ _____    ______ ____
ROOT
ATOM      1  C   UNL     1      -0.946  10.050 -10.757  0.00  0.00    +0.000 C 
ATOM      2  H   UNL     1      -0.621  11.007 -10.334  0.00  0.00    +0.000 HD
ATOM      3  H   UNL     1      -0.265   9.260 -10.419  0.00  0.00    +0.000 HD
ENDROOT
BRANCH   1   4
ATOM      4  C   UNL     1      -0.926  10.126 -12.282  0.00  0.00    +0.000 C 
ATOM      5  H   UNL     1      -1.950  10.184 -12.667  0.00  0.00    +0.000 HD
ATOM      6  H   UNL     1      -0.415  11.043 -12.604  0.00  0.00    +0.000 HD
BRANCH   4   7
ATOM      7  C   UNL     1      -0.224   8.925 -12.892  0.00  0.00    +0.000 C 
ATOM      8  H   UNL     1       0.112   8.242 -12.106  0.00  0.00    +0.000 HD
ATOM      9  H   UNL     1      -0.898   8.373 -13.557  0.00  0.00    +0.000 HD
ATOM     10  H   UNL     1       0.652   9.235 -13.472  0.00  0.00    +0.000 HD
ENDBRANCH   4   7
ENDBRANCH   1   4
BRANCH   1  12
ATOM     11  O   UNL     1      -3.373  10.179 -10.685  0.00  0.00    +0.000 OA
ATOM     12  C   UNL     1      -2.327   9.745 -10.223  0.00  0.00    +0.000 C 
BRANCH  12  13
ATOM     13  O   UNL     1      -2.211   8.909  -9.149  0.00  0.00    +0.000 OA
BRANCH  13  14
ATOM     14  C   UNL     1      -3.153   7.832  -9.103  0.00  0.00    +0.000 C 
ATOM     15  H   UNL     1      -3.099   7.340  -8.126  0.00  0.00    +0.000 HD
ATOM     16  H   UNL     1      -4.164   8.225  -9.257  0.00  0.00    +0.000 HD
BRANCH  14  17
ATOM     17  C   UNL     1      -2.819   6.839 -10.196  0.00  0.00    +0.000 C 
ATOM     18  H   UNL     1      -2.024   6.161  -9.878  0.00  0.00    +0.000 HD
ATOM     19  H   UNL     1      -3.702   6.249 -10.463  0.00  0.00    +0.000 HD
ATOM     20  H   UNL     1      -2.499   7.360 -11.105  0.00  0.00    +0.000 HD
ENDBRANCH  14  17
ENDBRANCH  13  14
ENDBRANCH  12  13
ENDBRANCH   1  12
TORSDOF 6
ENDMDL
MODEL 9
REMARK VINA RESULT:    -3.486      2.214      3.148
REMARK INTER + INTRA:          -4.717
REMARK INTER:                  -4.503
REMARK INTRA:                  -0.214
REMARK UNBOUND:                -0.212
REMARK  Name = 7762
REMARK  6 active torsions:
REMARK  status: ('A' for Active; 'I' for Inactive)
REMARK    1  A    between atoms: O_1  and  C_6
REMARK    2  A    between atoms: O_1  and  C_7
REMARK    3  A    between atoms: C_3  and  C_4
REMARK    4  A    between atoms: C_3  and  C_5
REMARK    5  A    between atoms: C_4  and  C_6
REMARK    6  A    between atoms: C_7  and  C_8
REMARK                            x       y       z     vdW  Elec       q    Type
REMARK                         _______ _______ _______ _____ _____    ______ ____
ROOT
ATOM      1  C   UNL     1      -1.810   6.748 -11.416  0.00  0.00    +0.000 C 
ATOM      2  H   UNL     1      -1.631   5.760 -11.856  0.00  0.00    +0.000 HD
ATOM      3  H   UNL     1      -1.096   6.910 -10.600  0.00  0.00    +0.000 HD
ENDROOT
BRANCH   1   4
ATOM      4  C   UNL     1      -3.235   6.820 -10.872  0.00  0.00    +0.000 C 
ATOM      5  H   UNL     1      -3.735   7.718 -11.253  0.00  0.00    +0.000 HD
ATOM      6  H   UNL     1      -3.815   5.960 -11.230  0.00  0.00    +0.000 HD
BRANCH   4   7
ATOM      7  C   UNL     1      -3.254   6.838  -9.354  0.00  0.00    +0.000 C 
ATOM      8  H   UNL     1      -4.085   6.234  -8.977  0.00  0.00    +0.000 HD
ATOM      9  H   UNL     1      -2.324   6.428  -8.944  0.00  0.00    +0.000 HD
ATOM     10  H   UNL     1      -3.375   7.858  -8.975  0.00  0.00    +0.000 HD
ENDBRANCH   4   7
ENDBRANCH   1   4
BRANCH   1  12
ATOM     11  O   UNL     1      -2.209   7.922 -13.508  0.00  0.00    +0.000 OA
ATOM     12  C   UNL     1      -1.556   7.790 -12.481  0.00  0.00    +0.000 C 
BRANCH  12  13
ATOM     13  O   UNL     1      -0.487   8.553 -12.107  0.00  0.00    +0.000 OA
BRANCH  13  14
ATOM     14  C   UNL     1      -0.770   9.938 -11.877  0.00  0.00    +0.000 C 
ATOM     15  H   UNL     1       0.136  10.530 -12.050  0.00  0.00    +0.000 HD
ATOM     16  H   UNL     1      -1.557  10.268 -12.563  0.00  0.00    +0.000 HD
BRANCH  14  17
ATOM     17  C   UNL     1      -1.232  10.114 -10.446  0.00  0.00    +0.000 C 
ATOM     18  H   UNL     1      -2.274  10.441 -10.410  0.00  0.00    +0.000 HD
ATOM     19  H   UNL     1      -1.136   9.175  -9.892  0.00  0.00    +0.000 HD
ATOM     20  H   UNL     1      -0.611  10.853  -9.929  0.00  0.00    +0.000 HD
ENDBRANCH  14  17
ENDBRANCH  13  14
ENDBRANCH  12  13
ENDBRANCH   1  12
TORSDOF 6
ENDMDL
MODEL 10
REMARK VINA RESULT:    -3.305      7.937      9.041
REMARK INTER + INTRA:          -4.483
REMARK INTER:                  -4.271
REMARK INTRA:                  -0.212
REMARK UNBOUND:                -0.212
REMARK  Name = 7762
REMARK  6 active torsions:
REMARK  status: ('A' for Active; 'I' for Inactive)
REMARK    1  A    between atoms: O_1  and  C_6
REMARK    2  A    between atoms: O_1  and  C_7
REMARK    3  A    between atoms: C_3  and  C_4
REMARK    4  A    between atoms: C_3  and  C_5
REMARK    5  A    between atoms: C_4  and  C_6
REMARK    6  A    between atoms: C_7  and  C_8
REMARK                            x       y       z     vdW  Elec       q    Type
REMARK                         _______ _______ _______ _____ _____    ______ ____
ROOT
ATOM      1  C   UNL     1      -8.243   4.760  -4.652  0.00  0.00    +0.000 C 
ATOM      2  H   UNL     1      -7.193   4.481  -4.503  0.00  0.00    +0.000 HD
ATOM      3  H   UNL     1      -8.619   5.230  -3.735  0.00  0.00    +0.000 HD
ENDROOT
BRANCH   1   4
ATOM      4  C   UNL     1      -9.068   3.515  -4.966  0.00  0.00    +0.000 C 
ATOM      5  H   UNL     1      -8.646   2.997  -5.835  0.00  0.00    +0.000 HD
ATOM      6  H   UNL     1      -9.019   2.812  -4.125  0.00  0.00    +0.000 HD
BRANCH   4   7
ATOM      7  C   UNL     1     -10.521   3.863  -5.241  0.00  0.00    +0.000 C 
ATOM      8  H   UNL     1     -11.101   3.834  -4.314  0.00  0.00    +0.000 HD
ATOM      9  H   UNL     1     -10.611   4.868  -5.667  0.00  0.00    +0.000 HD
ATOM     10  H   UNL     1     -10.968   3.151  -5.944  0.00  0.00    +0.000 HD
ENDBRANCH   4   7
ENDBRANCH   1   4
BRANCH   1  12
ATOM     11  O   UNL     1      -7.968   5.576  -6.925  0.00  0.00    +0.000 OA
ATOM     12  C   UNL     1      -8.304   5.778  -5.767  0.00  0.00    +0.000 C 
BRANCH  12  13
ATOM     13  O   UNL     1      -8.797   6.951  -5.268  0.00  0.00    +0.000 OA
BRANCH  13  14
ATOM     14  C   UNL     1      -9.671   7.673  -6.142  0.00  0.00    +0.000 C 
ATOM     15  H   UNL     1      -9.127   8.508  -6.595  0.00  0.00    +0.000 HD
ATOM     16  H   UNL     1     -10.032   7.003  -6.931  0.00  0.00    +0.000 HD
BRANCH  14  17
ATOM     17  C   UNL     1     -10.844   8.198  -5.342  0.00  0.00    +0.000 C 
ATOM     18  H   UNL     1     -11.728   7.572  -5.488  0.00  0.00    +0.000 HD
ATOM     19  H   UNL     1     -10.601   8.225  -4.275  0.00  0.00    +0.000 HD
ATOM     20  H   UNL     1     -11.084   9.225  -5.639  0.00  0.00    +0.000 HD
ENDBRANCH  14  17
ENDBRANCH  13  14
ENDBRANCH  12  13
ENDBRANCH   1  12
TORSDOF 6
ENDMDL
