MODEL 1
REMARK VINA RESULT:    -5.571      0.000      0.000
REMARK INTER + INTRA:          -7.109
REMARK INTER:                  -6.863
REMARK INTRA:                  -0.246
REMARK UNBOUND:                -0.234
REMARK  Name = 3314
REMARK  5 active torsions:
REMARK  status: ('A' for Active; 'I' for Inactive)
REMARK    1  A    between atoms: O_1  and  C_6
REMARK    2  A    between atoms: O_1  and  C_11
REMARK    3  A    between atoms: O_2  and  C_8
REMARK    4  A    between atoms: C_3  and  C_4
REMARK    5  A    between atoms: C_4  and  C_10
REMARK                            x       y       z     vdW  Elec       q    Type
REMARK                         _______ _______ _______ _____ _____    ______ ____
ROOT
ATOM      1  C   UNL     1       5.470   8.551   1.941  0.00  0.00    +0.000 A 
ATOM      2  C   UNL     1       5.908   9.418   0.938  0.00  0.00    +0.000 A 
ATOM      3  C   UNL     1       5.078  10.447   0.495  0.00  0.00    +0.000 A 
ATOM      4  C   UNL     1       4.202   8.715   2.498  0.00  0.00    +0.000 A 
ATOM      5  C   UNL     1       3.811  10.611   1.053  0.00  0.00    +0.000 A 
ATOM      6  C   UNL     1       3.372   9.745   2.055  0.00  0.00    +0.000 A 
ATOM      7  H   UNL     1       6.895   9.296   0.499  0.00  0.00    +0.000 HD
ATOM      8  H   UNL     1       3.850   8.047   3.281  0.00  0.00    +0.000 HD
ATOM      9  H   UNL     1       2.387   9.861   2.499  0.00  0.00    +0.000 HD
ENDROOT
BRANCH   1  10
ATOM     10  C   UNL     1       6.358   7.451   2.414  0.00  0.00    +0.000 C 
ATOM     11  H   UNL     1       6.408   6.661   1.653  0.00  0.00    +0.000 HD
ATOM     12  H   UNL     1       7.387   7.822   2.506  0.00  0.00    +0.000 HD
BRANCH  10  13
ATOM     13  C   UNL     1       5.895   6.835   3.709  0.00  0.00    +0.000 C 
ATOM     14  C   UNL     1       6.515   6.998   4.883  0.00  0.00    +0.000 C 
ATOM     15  H   UNL     1       5.008   6.206   3.674  0.00  0.00    +0.000 HD
ATOM     16  H   UNL     1       6.132   6.519   5.778  0.00  0.00    +0.000 HD
ATOM     17  H   UNL     1       7.406   7.608   4.973  0.00  0.00    +0.000 HD
ENDBRANCH  10  13
ENDBRANCH   1  10
BRANCH   5  18
ATOM     18  O   UNL     1       2.990  11.612   0.627  0.00  0.00    +0.000 OA
ATOM     19  H   UNL     1       3.417  12.079  -0.112  0.00  0.00    +0.000 HD
ENDBRANCH   5  18
BRANCH   3  20
ATOM     20  O   UNL     1       5.517  11.287  -0.484  0.00  0.00    +0.000 OA
BRANCH  20  21
ATOM     21  C   UNL     1       6.684  10.894  -1.201  0.00  0.00    +0.000 C 
ATOM     22  H   UNL     1       7.447  10.515  -0.514  0.00  0.00    +0.000 HD
ATOM     23  H   UNL     1       7.083  11.733  -1.780  0.00  0.00    +0.000 HD
ATOM     24  H   UNL     1       6.408  10.093  -1.894  0.00  0.00    +0.000 HD
ENDBRANCH  20  21
ENDBRANCH   3  20
TORSDOF 5
ENDMDL
MODEL 2
REMARK VINA RESULT:    -5.480      1.410      2.828
REMARK INTER + INTRA:          -6.995
REMARK INTER:                  -6.779
REMARK INTRA:                  -0.217
REMARK UNBOUND:                -0.234
REMARK  Name = 3314
REMARK  5 active torsions:
REMARK  status: ('A' for Active; 'I' for Inactive)
REMARK    1  A    between atoms: O_1  and  C_6
REMARK    2  A    between atoms: O_1  and  C_11
REMARK    3  A    between atoms: O_2  and  C_8
REMARK    4  A    between atoms: C_3  and  C_4
REMARK    5  A    between atoms: C_4  and  C_10
REMARK                            x       y       z     vdW  Elec       q    Type
REMARK                         _______ _______ _______ _____ _____    ______ ____
ROOT
ATOM      1  C   UNL     1       6.838   9.058   1.496  0.00  0.00    +0.000 A 
ATOM      2  C   UNL     1       5.565   9.428   1.063  0.00  0.00    +0.000 A 
ATOM      3  C   UNL     1       5.410  10.123  -0.136  0.00  0.00    +0.000 A 
ATOM      4  C   UNL     1       7.958   9.386   0.731  0.00  0.00    +0.000 A 
ATOM      5  C   UNL     1       6.530  10.450  -0.901  0.00  0.00    +0.000 A 
ATOM      6  C   UNL     1       7.804  10.081  -0.468  0.00  0.00    +0.000 A 
ATOM      7  H   UNL     1       4.688   9.175   1.655  0.00  0.00    +0.000 HD
ATOM      8  H   UNL     1       8.955   9.102   1.057  0.00  0.00    +0.000 HD
ATOM      9  H   UNL     1       8.684  10.329  -1.055  0.00  0.00    +0.000 HD
ENDROOT
BRANCH   1  10
ATOM     10  C   UNL     1       7.002   8.314   2.778  0.00  0.00    +0.000 C 
ATOM     11  H   UNL     1       8.023   7.917   2.850  0.00  0.00    +0.000 HD
ATOM     12  H   UNL     1       6.907   9.009   3.622  0.00  0.00    +0.000 HD
BRANCH  10  13
ATOM     13  C   UNL     1       6.036   7.166   2.921  0.00  0.00    +0.000 C 
ATOM     14  C   UNL     1       5.414   6.844   4.061  0.00  0.00    +0.000 C 
ATOM     15  H   UNL     1       5.850   6.556   2.039  0.00  0.00    +0.000 HD
ATOM     16  H   UNL     1       4.736   5.999   4.097  0.00  0.00    +0.000 HD
ATOM     17  H   UNL     1       5.568   7.413   4.970  0.00  0.00    +0.000 HD
ENDBRANCH  10  13
ENDBRANCH   1  10
BRANCH   5  18
ATOM     18  O   UNL     1       6.393  11.131  -2.073  0.00  0.00    +0.000 OA
ATOM     19  H   UNL     1       7.212  11.624  -2.252  0.00  0.00    +0.000 HD
ENDBRANCH   5  18
BRANCH   3  20
ATOM     20  O   UNL     1       4.162  10.479  -0.549  0.00  0.00    +0.000 OA
BRANCH  20  21
ATOM     21  C   UNL     1       3.512  11.522   0.174  0.00  0.00    +0.000 C 
ATOM     22  H   UNL     1       4.250  12.199   0.616  0.00  0.00    +0.000 HD
ATOM     23  H   UNL     1       2.868  11.106   0.955  0.00  0.00    +0.000 HD
ATOM     24  H   UNL     1       2.891  12.089  -0.526  0.00  0.00    +0.000 HD
ENDBRANCH  20  21
ENDBRANCH   3  20
TORSDOF 5
ENDMDL
MODEL 3
REMARK VINA RESULT:    -5.438     13.715     14.825
REMARK INTER + INTRA:          -6.944
REMARK INTER:                  -6.748
REMARK INTRA:                  -0.196
REMARK UNBOUND:                -0.234
REMARK  Name = 3314
REMARK  5 active torsions:
REMARK  status: ('A' for Active; 'I' for Inactive)
REMARK    1  A    between atoms: O_1  and  C_6
REMARK    2  A    between atoms: O_1  and  C_11
REMARK    3  A    between atoms: O_2  and  C_8
REMARK    4  A    between atoms: C_3  and  C_4
REMARK    5  A    between atoms: C_4  and  C_10
REMARK                            x       y       z     vdW  Elec       q    Type
REMARK                         _______ _______ _______ _____ _____    ______ ____
ROOT
ATOM      1  C   UNL     1      -2.974   7.446  -9.568  0.00  0.00    +0.000 A 
ATOM      2  C   UNL     1      -2.404   7.020 -10.768  0.00  0.00    +0.000 A 
ATOM      3  C   UNL     1      -1.624   7.898 -11.520  0.00  0.00    +0.000 A 
ATOM      4  C   UNL     1      -2.764   8.750  -9.121  0.00  0.00    +0.000 A 
ATOM      5  C   UNL     1      -1.414   9.202 -11.072  0.00  0.00    +0.000 A 
ATOM      6  C   UNL     1      -1.983   9.628  -9.873  0.00  0.00    +0.000 A 
ATOM      7  H   UNL     1      -2.564   6.004 -11.122  0.00  0.00    +0.000 HD
ATOM      8  H   UNL     1      -3.201   9.094  -8.187  0.00  0.00    +0.000 HD
ATOM      9  H   UNL     1      -1.827  10.641  -9.512  0.00  0.00    +0.000 HD
ENDROOT
BRANCH   1  10
ATOM     10  C   UNL     1      -3.807   6.506  -8.764  0.00  0.00    +0.000 C 
ATOM     11  H   UNL     1      -3.292   5.541  -8.670  0.00  0.00    +0.000 HD
ATOM     12  H   UNL     1      -3.898   6.880  -7.737  0.00  0.00    +0.000 HD
BRANCH  10  13
ATOM     13  C   UNL     1      -5.167   6.262  -9.366  0.00  0.00    +0.000 C 
ATOM     14  C   UNL     1      -6.194   5.715  -8.706  0.00  0.00    +0.000 C 
ATOM     15  H   UNL     1      -5.309   6.537 -10.409  0.00  0.00    +0.000 HD
ATOM     16  H   UNL     1      -7.146   5.559  -9.202  0.00  0.00    +0.000 HD
ATOM     17  H   UNL     1      -6.105   5.415  -7.668  0.00  0.00    +0.000 HD
ENDBRANCH  10  13
ENDBRANCH   1  10
BRANCH   5  18
ATOM     18  O   UNL     1      -0.655  10.070 -11.799  0.00  0.00    +0.000 OA
ATOM     19  H   UNL     1       0.134   9.604 -12.126  0.00  0.00    +0.000 HD
ENDBRANCH   5  18
BRANCH   3  20
ATOM     20  O   UNL     1      -1.073   7.471 -12.691  0.00  0.00    +0.000 OA
BRANCH  20  21
ATOM     21  C   UNL     1      -1.957   7.282 -13.793  0.00  0.00    +0.000 C 
ATOM     22  H   UNL     1      -1.418   6.865 -14.650  0.00  0.00    +0.000 HD
ATOM     23  H   UNL     1      -2.432   8.228 -14.073  0.00  0.00    +0.000 HD
ATOM     24  H   UNL     1      -2.736   6.577 -13.491  0.00  0.00    +0.000 HD
ENDBRANCH  20  21
ENDBRANCH   3  20
TORSDOF 5
ENDMDL
MODEL 4
REMARK VINA RESULT:    -5.304     28.358     29.578
REMARK INTER + INTRA:          -6.778
REMARK INTER:                  -6.579
REMARK INTRA:                  -0.199
REMARK UNBOUND:                -0.234
REMARK  Name = 3314
REMARK  5 active torsions:
REMARK  status: ('A' for Active; 'I' for Inactive)
REMARK    1  A    between atoms: O_1  and  C_6
REMARK    2  A    between atoms: O_1  and  C_11
REMARK    3  A    between atoms: O_2  and  C_8
REMARK    4  A    between atoms: C_3  and  C_4
REMARK    5  A    between atoms: C_4  and  C_10
REMARK                            x       y       z     vdW  Elec       q    Type
REMARK                         _______ _______ _______ _____ _____    ______ ____
ROOT
ATOM      1  C   UNL     1     -20.833  -2.530   5.712  0.00  0.00    +0.000 A 
ATOM      2  C   UNL     1     -21.535  -3.010   6.818  0.00  0.00    +0.000 A 
ATOM      3  C   UNL     1     -21.852  -2.150   7.870  0.00  0.00    +0.000 A 
ATOM      4  C   UNL     1     -20.448  -1.191   5.658  0.00  0.00    +0.000 A 
ATOM      5  C   UNL     1     -21.467  -0.811   7.814  0.00  0.00    +0.000 A 
ATOM      6  C   UNL     1     -20.766  -0.330   6.709  0.00  0.00    +0.000 A 
ATOM      7  H   UNL     1     -21.837  -4.054   6.866  0.00  0.00    +0.000 HD
ATOM      8  H   UNL     1     -19.902  -0.804   4.801  0.00  0.00    +0.000 HD
ATOM      9  H   UNL     1     -20.460   0.711   6.653  0.00  0.00    +0.000 HD
ENDROOT
BRANCH   1  10
ATOM     10  C   UNL     1     -20.495  -3.450   4.588  0.00  0.00    +0.000 C 
ATOM     11  H   UNL     1     -21.416  -3.812   4.114  0.00  0.00    +0.000 HD
ATOM     12  H   UNL     1     -19.970  -2.894   3.801  0.00  0.00    +0.000 HD
BRANCH  10  13
ATOM     13  C   UNL     1     -19.686  -4.645   5.027  0.00  0.00    +0.000 C 
ATOM     14  C   UNL     1     -19.042  -5.464   4.189  0.00  0.00    +0.000 C 
ATOM     15  H   UNL     1     -19.643  -4.855   6.093  0.00  0.00    +0.000 HD
ATOM     16  H   UNL     1     -18.484  -6.312   4.571  0.00  0.00    +0.000 HD
ATOM     17  H   UNL     1     -19.057  -5.306   3.117  0.00  0.00    +0.000 HD
ENDBRANCH  10  13
ENDBRANCH   1  10
BRANCH   5  18
ATOM     18  O   UNL     1     -21.770   0.039   8.836  0.00  0.00    +0.000 OA
ATOM     19  H   UNL     1     -21.328   0.892   8.681  0.00  0.00    +0.000 HD
ENDBRANCH   5  18
BRANCH   3  20
ATOM     20  O   UNL     1     -22.537  -2.630   8.945  0.00  0.00    +0.000 OA
BRANCH  20  21
ATOM     21  C   UNL     1     -23.914  -2.943   8.749  0.00  0.00    +0.000 C 
ATOM     22  H   UNL     1     -24.477  -2.044   8.475  0.00  0.00    +0.000 HD
ATOM     23  H   UNL     1     -24.340  -3.391   9.652  0.00  0.00    +0.000 HD
ATOM     24  H   UNL     1     -23.989  -3.666   7.931  0.00  0.00    +0.000 HD
ENDBRANCH  20  21
ENDBRANCH   3  20
TORSDOF 5
ENDMDL
MODEL 5
REMARK VINA RESULT:    -5.104     16.245     17.622
REMARK INTER + INTRA:          -6.532
REMARK INTER:                  -6.312
REMARK INTRA:                  -0.219
REMARK UNBOUND:                -0.234
REMARK  Name = 3314
REMARK  5 active torsions:
REMARK  status: ('A' for Active; 'I' for Inactive)
REMARK    1  A    between atoms: O_1  and  C_6
REMARK    2  A    between atoms: O_1  and  C_11
REMARK    3  A    between atoms: O_2  and  C_8
REMARK    4  A    between atoms: C_3  and  C_4
REMARK    5  A    between atoms: C_4  and  C_10
REMARK                            x       y       z     vdW  Elec       q    Type
REMARK                         _______ _______ _______ _____ _____    ______ ____
ROOT
ATOM      1  C   UNL     1     -10.324   3.782  -5.657  0.00  0.00    +0.000 A 
ATOM      2  C   UNL     1     -10.572   5.138  -5.878  0.00  0.00    +0.000 A 
ATOM      3  C   UNL     1      -9.645   6.093  -5.460  0.00  0.00    +0.000 A 
ATOM      4  C   UNL     1      -9.151   3.383  -5.018  0.00  0.00    +0.000 A 
ATOM      5  C   UNL     1      -8.471   5.692  -4.822  0.00  0.00    +0.000 A 
ATOM      6  C   UNL     1      -8.224   4.338  -4.601  0.00  0.00    +0.000 A 
ATOM      7  H   UNL     1     -11.485   5.456  -6.375  0.00  0.00    +0.000 HD
ATOM      8  H   UNL     1      -8.946   2.330  -4.842  0.00  0.00    +0.000 HD
ATOM      9  H   UNL     1      -7.313   4.012  -4.105  0.00  0.00    +0.000 HD
ENDROOT
BRANCH   1  10
ATOM     10  C   UNL     1     -11.316   2.762  -6.105  0.00  0.00    +0.000 C 
ATOM     11  H   UNL     1     -11.840   3.122  -7.000  0.00  0.00    +0.000 HD
ATOM     12  H   UNL     1     -10.790   1.855  -6.429  0.00  0.00    +0.000 HD
BRANCH  10  13
ATOM     13  C   UNL     1     -12.343   2.436  -5.052  0.00  0.00    +0.000 C 
ATOM     14  C   UNL     1     -12.537   1.214  -4.544  0.00  0.00    +0.000 C 
ATOM     15  H   UNL     1     -12.973   3.250  -4.699  0.00  0.00    +0.000 HD
ATOM     16  H   UNL     1     -13.301   1.046  -3.792  0.00  0.00    +0.000 HD
ATOM     17  H   UNL     1     -11.943   0.367  -4.864  0.00  0.00    +0.000 HD
ENDBRANCH  10  13
ENDBRANCH   1  10
BRANCH   5  18
ATOM     18  O   UNL     1      -7.559   6.616  -4.407  0.00  0.00    +0.000 OA
ATOM     19  H   UNL     1      -8.025   7.436  -4.166  0.00  0.00    +0.000 HD
ENDBRANCH   5  18
BRANCH   3  20
ATOM     20  O   UNL     1      -9.897   7.413  -5.681  0.00  0.00    +0.000 OA
BRANCH  20  21
ATOM     21  C   UNL     1     -11.198   7.890  -5.344  0.00  0.00    +0.000 C 
ATOM     22  H   UNL     1     -11.206   8.299  -4.329  0.00  0.00    +0.000 HD
ATOM     23  H   UNL     1     -11.937   7.088  -5.431  0.00  0.00    +0.000 HD
ATOM     24  H   UNL     1     -11.463   8.686  -6.045  0.00  0.00    +0.000 HD
ENDBRANCH  20  21
ENDBRANCH   3  20
TORSDOF 5
ENDMDL
MODEL 6
REMARK VINA RESULT:    -4.994      3.523      5.292
REMARK INTER + INTRA:          -6.396
REMARK INTER:                  -6.153
REMARK INTRA:                  -0.243
REMARK UNBOUND:                -0.234
REMARK  Name = 3314
REMARK  5 active torsions:
REMARK  status: ('A' for Active; 'I' for Inactive)
REMARK    1  A    between atoms: O_1  and  C_6
REMARK    2  A    between atoms: O_1  and  C_11
REMARK    3  A    between atoms: O_2  and  C_8
REMARK    4  A    between atoms: C_3  and  C_4
REMARK    5  A    between atoms: C_4  and  C_10
REMARK                            x       y       z     vdW  Elec       q    Type
REMARK                         _______ _______ _______ _____ _____    ______ ____
ROOT
ATOM      1  C   UNL     1       7.627   9.025   2.131  0.00  0.00    +0.000 A 
ATOM      2  C   UNL     1       7.975   9.165   3.475  0.00  0.00    +0.000 A 
ATOM      3  C   UNL     1       7.324   8.405   4.447  0.00  0.00    +0.000 A 
ATOM      4  C   UNL     1       6.627   8.125   1.760  0.00  0.00    +0.000 A 
ATOM      5  C   UNL     1       6.326   7.504   4.075  0.00  0.00    +0.000 A 
ATOM      6  C   UNL     1       5.978   7.364   2.732  0.00  0.00    +0.000 A 
ATOM      7  H   UNL     1       8.752   9.865   3.771  0.00  0.00    +0.000 HD
ATOM      8  H   UNL     1       6.348   8.005   0.716  0.00  0.00    +0.000 HD
ATOM      9  H   UNL     1       5.202   6.666   2.428  0.00  0.00    +0.000 HD
ENDROOT
BRANCH   1  10
ATOM     10  C   UNL     1       8.323   9.838   1.093  0.00  0.00    +0.000 C 
ATOM     11  H   UNL     1       8.269  10.902   1.357  0.00  0.00    +0.000 HD
ATOM     12  H   UNL     1       9.394   9.598   1.094  0.00  0.00    +0.000 HD
BRANCH  10  13
ATOM     13  C   UNL     1       7.738   9.661  -0.285  0.00  0.00    +0.000 C 
ATOM     14  C   UNL     1       7.583  10.653  -1.169  0.00  0.00    +0.000 C 
ATOM     15  H   UNL     1       7.410   8.662  -0.564  0.00  0.00    +0.000 HD
ATOM     16  H   UNL     1       7.147  10.458  -2.143  0.00  0.00    +0.000 HD
ATOM     17  H   UNL     1       7.886  11.668  -0.940  0.00  0.00    +0.000 HD
ENDBRANCH  10  13
ENDBRANCH   1  10
BRANCH   5  18
ATOM     18  O   UNL     1       5.682   6.757   5.015  0.00  0.00    +0.000 OA
ATOM     19  H   UNL     1       5.503   7.313   5.794  0.00  0.00    +0.000 HD
ENDBRANCH   5  18
BRANCH   3  20
ATOM     20  O   UNL     1       7.672   8.550   5.756  0.00  0.00    +0.000 OA
BRANCH  20  21
ATOM     21  C   UNL     1       7.211   9.723   6.423  0.00  0.00    +0.000 C 
ATOM     22  H   UNL     1       6.901  10.481   5.696  0.00  0.00    +0.000 HD
ATOM     23  H   UNL     1       7.991  10.126   7.077  0.00  0.00    +0.000 HD
ATOM     24  H   UNL     1       6.347   9.451   7.036  0.00  0.00    +0.000 HD
ENDBRANCH  20  21
ENDBRANCH   3  20
TORSDOF 5
ENDMDL
MODEL 7
REMARK VINA RESULT:    -4.817      2.545      4.364
REMARK INTER + INTRA:          -6.177
REMARK INTER:                  -5.922
REMARK INTRA:                  -0.256
REMARK UNBOUND:                -0.234
REMARK  Name = 3314
REMARK  5 active torsions:
REMARK  status: ('A' for Active; 'I' for Inactive)
REMARK    1  A    between atoms: O_1  and  C_6
REMARK    2  A    between atoms: O_1  and  C_11
REMARK    3  A    between atoms: O_2  and  C_8
REMARK    4  A    between atoms: C_3  and  C_4
REMARK    5  A    between atoms: C_4  and  C_10
REMARK                            x       y       z     vdW  Elec       q    Type
REMARK                         _______ _______ _______ _____ _____    ______ ____
ROOT
ATOM      1  C   UNL     1       7.066   9.362   1.018  0.00  0.00    +0.000 A 
ATOM      2  C   UNL     1       6.840   8.695   2.223  0.00  0.00    +0.000 A 
ATOM      3  C   UNL     1       5.544   8.327   2.584  0.00  0.00    +0.000 A 
ATOM      4  C   UNL     1       5.995   9.661   0.175  0.00  0.00    +0.000 A 
ATOM      5  C   UNL     1       4.474   8.626   1.741  0.00  0.00    +0.000 A 
ATOM      6  C   UNL     1       4.699   9.292   0.536  0.00  0.00    +0.000 A 
ATOM      7  H   UNL     1       7.671   8.459   2.884  0.00  0.00    +0.000 HD
ATOM      8  H   UNL     1       6.158  10.179  -0.767  0.00  0.00    +0.000 HD
ATOM      9  H   UNL     1       3.875   9.531  -0.130  0.00  0.00    +0.000 HD
ENDROOT
BRANCH   1  10
ATOM     10  C   UNL     1       8.452   9.754   0.632  0.00  0.00    +0.000 C 
ATOM     11  H   UNL     1       8.681  10.750   1.035  0.00  0.00    +0.000 HD
ATOM     12  H   UNL     1       9.173   9.081   1.113  0.00  0.00    +0.000 HD
BRANCH  10  13
ATOM     13  C   UNL     1       8.663   9.785  -0.860  0.00  0.00    +0.000 C 
ATOM     14  C   UNL     1       9.481   8.958  -1.520  0.00  0.00    +0.000 C 
ATOM     15  H   UNL     1       8.123  10.541  -1.425  0.00  0.00    +0.000 HD
ATOM     16  H   UNL     1       9.593   9.040  -2.596  0.00  0.00    +0.000 HD
ATOM     17  H   UNL     1      10.049   8.192  -1.006  0.00  0.00    +0.000 HD
ENDBRANCH  10  13
ENDBRANCH   1  10
BRANCH   5  18
ATOM     18  O   UNL     1       3.203   8.273   2.084  0.00  0.00    +0.000 OA
ATOM     19  H   UNL     1       3.073   8.441   3.033  0.00  0.00    +0.000 HD
ENDBRANCH   5  18
BRANCH   3  20
ATOM     20  O   UNL     1       5.336   7.677   3.763  0.00  0.00    +0.000 OA
BRANCH  20  21
ATOM     21  C   UNL     1       5.324   8.470   4.948  0.00  0.00    +0.000 C 
ATOM     22  H   UNL     1       6.069   9.269   4.882  0.00  0.00    +0.000 HD
ATOM     23  H   UNL     1       5.516   7.850   5.829  0.00  0.00    +0.000 HD
ATOM     24  H   UNL     1       4.333   8.922   5.048  0.00  0.00    +0.000 HD
ENDBRANCH  20  21
ENDBRANCH   3  20
TORSDOF 5
ENDMDL
MODEL 8
REMARK VINA RESULT:    -4.793     28.260     29.696
REMARK INTER + INTRA:          -6.149
REMARK INTER:                  -6.050
REMARK INTRA:                  -0.099
REMARK UNBOUND:                -0.234
REMARK  Name = 3314
REMARK  5 active torsions:
REMARK  status: ('A' for Active; 'I' for Inactive)
REMARK    1  A    between atoms: O_1  and  C_6
REMARK    2  A    between atoms: O_1  and  C_11
REMARK    3  A    between atoms: O_2  and  C_8
REMARK    4  A    between atoms: C_3  and  C_4
REMARK    5  A    between atoms: C_4  and  C_10
REMARK                            x       y       z     vdW  Elec       q    Type
REMARK                         _______ _______ _______ _____ _____    ______ ____
ROOT
ATOM      1  C   UNL     1     -21.400  -2.852   6.115  0.00  0.00    +0.000 A 
ATOM      2  C   UNL     1     -20.491  -3.721   5.510  0.00  0.00    +0.000 A 
ATOM      3  C   UNL     1     -20.899  -4.531   4.451  0.00  0.00    +0.000 A 
ATOM      4  C   UNL     1     -22.717  -2.794   5.660  0.00  0.00    +0.000 A 
ATOM      5  C   UNL     1     -22.216  -4.472   3.996  0.00  0.00    +0.000 A 
ATOM      6  C   UNL     1     -23.125  -3.604   4.600  0.00  0.00    +0.000 A 
ATOM      7  H   UNL     1     -19.462  -3.770   5.860  0.00  0.00    +0.000 HD
ATOM      8  H   UNL     1     -23.435  -2.120   6.121  0.00  0.00    +0.000 HD
ATOM      9  H   UNL     1     -24.154  -3.548   4.255  0.00  0.00    +0.000 HD
ENDROOT
BRANCH   1  10
ATOM     10  C   UNL     1     -20.962  -1.986   7.247  0.00  0.00    +0.000 C 
ATOM     11  H   UNL     1     -21.820  -1.755   7.891  0.00  0.00    +0.000 HD
ATOM     12  H   UNL     1     -20.267  -2.542   7.889  0.00  0.00    +0.000 HD
BRANCH  10  13
ATOM     13  C   UNL     1     -20.346  -0.687   6.793  0.00  0.00    +0.000 C 
ATOM     14  C   UNL     1     -20.414  -0.220   5.541  0.00  0.00    +0.000 C 
ATOM     15  H   UNL     1     -19.801  -0.107   7.534  0.00  0.00    +0.000 HD
ATOM     16  H   UNL     1     -19.941   0.719   5.279  0.00  0.00    +0.000 HD
ATOM     17  H   UNL     1     -20.938  -0.762   4.762  0.00  0.00    +0.000 HD
ENDBRANCH  10  13
ENDBRANCH   1  10
BRANCH   5  18
ATOM     18  O   UNL     1     -22.627  -5.260   2.963  0.00  0.00    +0.000 OA
ATOM     19  H   UNL     1     -23.108  -4.712   2.318  0.00  0.00    +0.000 HD
ENDBRANCH   5  18
BRANCH   3  20
ATOM     20  O   UNL     1     -20.002  -5.375   3.868  0.00  0.00    +0.000 OA
BRANCH  20  21
ATOM     21  C   UNL     1     -18.788  -5.619   4.575  0.00  0.00    +0.000 C 
ATOM     22  H   UNL     1     -18.484  -6.665   4.464  0.00  0.00    +0.000 HD
ATOM     23  H   UNL     1     -18.902  -5.371   5.635  0.00  0.00    +0.000 HD
ATOM     24  H   UNL     1     -18.009  -4.981   4.148  0.00  0.00    +0.000 HD
ENDBRANCH  20  21
ENDBRANCH   3  20
TORSDOF 5
ENDMDL
MODEL 9
REMARK VINA RESULT:    -4.721     13.896     15.882
REMARK INTER + INTRA:          -6.060
REMARK INTER:                  -5.825
REMARK INTRA:                  -0.234
REMARK UNBOUND:                -0.234
REMARK  Name = 3314
REMARK  5 active torsions:
REMARK  status: ('A' for Active; 'I' for Inactive)
REMARK    1  A    between atoms: O_1  and  C_6
REMARK    2  A    between atoms: O_1  and  C_11
REMARK    3  A    between atoms: O_2  and  C_8
REMARK    4  A    between atoms: C_3  and  C_4
REMARK    5  A    between atoms: C_4  and  C_10
REMARK                            x       y       z     vdW  Elec       q    Type
REMARK                         _______ _______ _______ _____ _____    ______ ____
ROOT
ATOM      1  C   UNL     1      -8.539  11.357   5.492  0.00  0.00    +0.000 A 
ATOM      2  C   UNL     1      -9.732  11.958   5.089  0.00  0.00    +0.000 A 
ATOM      3  C   UNL     1     -10.920  11.669   5.759  0.00  0.00    +0.000 A 
ATOM      4  C   UNL     1      -8.535  10.466   6.565  0.00  0.00    +0.000 A 
ATOM      5  C   UNL     1     -10.915  10.779   6.833  0.00  0.00    +0.000 A 
ATOM      6  C   UNL     1      -9.723  10.177   7.236  0.00  0.00    +0.000 A 
ATOM      7  H   UNL     1      -9.742  12.654   4.253  0.00  0.00    +0.000 HD
ATOM      8  H   UNL     1      -7.612   9.992   6.889  0.00  0.00    +0.000 HD
ATOM      9  H   UNL     1      -9.705   9.482   8.071  0.00  0.00    +0.000 HD
ENDROOT
BRANCH   1  10
ATOM     10  C   UNL     1      -7.269  11.667   4.774  0.00  0.00    +0.000 C 
ATOM     11  H   UNL     1      -6.444  11.093   5.213  0.00  0.00    +0.000 HD
ATOM     12  H   UNL     1      -7.338  11.317   3.736  0.00  0.00    +0.000 HD
BRANCH  10  13
ATOM     13  C   UNL     1      -6.907  13.130   4.820  0.00  0.00    +0.000 C 
ATOM     14  C   UNL     1      -6.058  13.666   5.703  0.00  0.00    +0.000 C 
ATOM     15  H   UNL     1      -7.385  13.786   4.095  0.00  0.00    +0.000 HD
ATOM     16  H   UNL     1      -5.847  14.730   5.687  0.00  0.00    +0.000 HD
ATOM     17  H   UNL     1      -5.561  13.060   6.451  0.00  0.00    +0.000 HD
ENDBRANCH  10  13
ENDBRANCH   1  10
BRANCH   5  18
ATOM     18  O   UNL     1     -12.069  10.486   7.496  0.00  0.00    +0.000 OA
ATOM     19  H   UNL     1     -12.616   9.905   6.939  0.00  0.00    +0.000 HD
ENDBRANCH   5  18
BRANCH   3  20
ATOM     20  O   UNL     1     -12.079  12.262   5.357  0.00  0.00    +0.000 OA
BRANCH  20  21
ATOM     21  C   UNL     1     -11.966  13.509   4.675  0.00  0.00    +0.000 C 
ATOM     22  H   UNL     1     -12.903  14.070   4.746  0.00  0.00    +0.000 HD
ATOM     23  H   UNL     1     -11.701  13.351   3.625  0.00  0.00    +0.000 HD
ATOM     24  H   UNL     1     -11.172  14.090   5.152  0.00  0.00    +0.000 HD
ENDBRANCH  20  21
ENDBRANCH   3  20
TORSDOF 5
ENDMDL
MODEL 10
REMARK VINA RESULT:    -4.707     14.372     15.463
REMARK INTER + INTRA:          -6.042
REMARK INTER:                  -5.797
REMARK INTRA:                  -0.245
REMARK UNBOUND:                -0.234
REMARK  Name = 3314
REMARK  5 active torsions:
REMARK  status: ('A' for Active; 'I' for Inactive)
REMARK    1  A    between atoms: O_1  and  C_6
REMARK    2  A    between atoms: O_1  and  C_11
REMARK    3  A    between atoms: O_2  and  C_8
REMARK    4  A    between atoms: C_3  and  C_4
REMARK    5  A    between atoms: C_4  and  C_10
REMARK                            x       y       z     vdW  Elec       q    Type
REMARK                         _______ _______ _______ _____ _____    ______ ____
ROOT
ATOM      1  C   UNL     1      -4.010   6.892 -10.031  0.00  0.00    +0.000 A 
ATOM      2  C   UNL     1      -2.788   7.564 -10.059  0.00  0.00    +0.000 A 
ATOM      3  C   UNL     1      -2.315   8.101 -11.256  0.00  0.00    +0.000 A 
ATOM      4  C   UNL     1      -4.759   6.757 -11.200  0.00  0.00    +0.000 A 
ATOM      5  C   UNL     1      -3.064   7.966 -12.425  0.00  0.00    +0.000 A 
ATOM      6  C   UNL     1      -4.286   7.295 -12.397  0.00  0.00    +0.000 A 
ATOM      7  H   UNL     1      -2.199   7.672  -9.151  0.00  0.00    +0.000 HD
ATOM      8  H   UNL     1      -5.713   6.237 -11.191  0.00  0.00    +0.000 HD
ATOM      9  H   UNL     1      -4.880   7.183 -13.300  0.00  0.00    +0.000 HD
ENDROOT
BRANCH   1  10
ATOM     10  C   UNL     1      -4.515   6.318  -8.750  0.00  0.00    +0.000 C 
ATOM     11  H   UNL     1      -3.946   5.413  -8.499  0.00  0.00    +0.000 HD
ATOM     12  H   UNL     1      -4.314   7.017  -7.929  0.00  0.00    +0.000 HD
BRANCH  10  13
ATOM     13  C   UNL     1      -5.978   5.960  -8.800  0.00  0.00    +0.000 C 
ATOM     14  C   UNL     1      -6.489   4.818  -8.327  0.00  0.00    +0.000 C 
ATOM     15  H   UNL     1      -6.652   6.676  -9.266  0.00  0.00    +0.000 HD
ATOM     16  H   UNL     1      -7.553   4.620  -8.402  0.00  0.00    +0.000 HD
ATOM     17  H   UNL     1      -5.862   4.068  -7.860  0.00  0.00    +0.000 HD
ENDBRANCH  10  13
ENDBRANCH   1  10
BRANCH   5  18
ATOM     18  O   UNL     1      -2.612   8.486 -13.601  0.00  0.00    +0.000 OA
ATOM     19  H   UNL     1      -3.051   8.029 -14.339  0.00  0.00    +0.000 HD
ENDBRANCH   5  18
BRANCH   3  20
ATOM     20  O   UNL     1      -1.120   8.755 -11.272  0.00  0.00    +0.000 OA
BRANCH  20  21
ATOM     21  C   UNL     1      -1.103  10.087 -10.764  0.00  0.00    +0.000 C 
ATOM     22  H   UNL     1      -1.819  10.713 -11.305  0.00  0.00    +0.000 HD
ATOM     23  H   UNL     1      -0.098  10.515 -10.839  0.00  0.00    +0.000 HD
ATOM     24  H   UNL     1      -1.391  10.055  -9.709  0.00  0.00    +0.000 HD
ENDBRANCH  20  21
ENDBRANCH   3  20
TORSDOF 5
ENDMDL
