MODEL 1
REMARK VINA RESULT:    -5.223      0.000      0.000
REMARK INTER + INTRA:          -7.225
REMARK INTER:                  -6.482
REMARK INTRA:                  -0.743
REMARK UNBOUND:                -0.324
REMARK  Name = 12813
REMARK  6 active torsions:
REMARK  status: ('A' for Active; 'I' for Inactive)
REMARK    1  A    between atoms: C_3  and  C_4
REMARK    2  A    between atoms: C_4  and  C_6
REMARK    3  A    between atoms: C_6  and  C_7
REMARK    4  A    between atoms: C_7  and  C_9
REMARK    5  A    between atoms: C_9  and  C_11
REMARK    6  A    between atoms: C_11  and  C_12
REMARK                            x       y       z     vdW  Elec       q    Type
REMARK                         _______ _______ _______ _____ _____    ______ ____
ROOT
ATOM      1  C   UNL     1      -2.654   9.690  -9.996  0.00  0.00    +0.000 C 
ATOM      2  H   UNL     1      -3.225  10.594  -9.751  0.00  0.00    +0.000 HD
ATOM      3  H   UNL     1      -3.146   9.219 -10.856  0.00  0.00    +0.000 HD
ENDROOT
BRANCH   1   4
ATOM      4  C   UNL     1      -1.219  10.070 -10.357  0.00  0.00    +0.000 C 
ATOM      5  H   UNL     1      -1.004  11.087 -10.004  0.00  0.00    +0.000 HD
ATOM      6  H   UNL     1      -0.538   9.389  -9.831  0.00  0.00    +0.000 HD
BRANCH   4   9
ATOM      7  O   UNL     1      -2.233   9.936 -12.544  0.00  0.00    +0.000 OA
ATOM      8  O   UNL     1      -2.983   8.975 -14.488  0.00  0.00    +0.000 OA
ATOM      9  C   UNL     1      -0.979   9.982 -11.851  0.00  0.00    +0.000 C 
ATOM     10  C   UNL     1      -0.273   8.712 -12.269  0.00  0.00    +0.000 C 
ATOM     11  C   UNL     1      -0.735   8.545 -13.697  0.00  0.00    +0.000 C 
ATOM     12  C   UNL     1      -2.110   9.141 -13.652  0.00  0.00    +0.000 C 
ATOM     13  H   UNL     1      -0.433  10.866 -12.204  0.00  0.00    +0.000 HD
ATOM     14  H   UNL     1      -0.617   7.857 -11.675  0.00  0.00    +0.000 HD
ATOM     15  H   UNL     1       0.815   8.774 -12.171  0.00  0.00    +0.000 HD
ATOM     16  H   UNL     1      -0.770   7.492 -13.987  0.00  0.00    +0.000 HD
ATOM     17  H   UNL     1      -0.118   9.119 -14.395  0.00  0.00    +0.000 HD
ENDBRANCH   4   9
ENDBRANCH   1   4
BRANCH   1  18
ATOM     18  C   UNL     1      -2.693   8.724  -8.809  0.00  0.00    +0.000 C 
ATOM     19  H   UNL     1      -3.195   9.202  -7.959  0.00  0.00    +0.000 HD
ATOM     20  H   UNL     1      -1.669   8.489  -8.490  0.00  0.00    +0.000 HD
BRANCH  18  21
ATOM     21  C   UNL     1      -3.421   7.428  -9.172  0.00  0.00    +0.000 C 
ATOM     22  H   UNL     1      -4.496   7.628  -9.261  0.00  0.00    +0.000 HD
ATOM     23  H   UNL     1      -3.302   6.705  -8.354  0.00  0.00    +0.000 HD
BRANCH  21  24
ATOM     24  C   UNL     1      -2.923   6.797 -10.474  0.00  0.00    +0.000 C 
ATOM     25  H   UNL     1      -2.046   7.348 -10.832  0.00  0.00    +0.000 HD
ATOM     26  H   UNL     1      -2.595   5.769 -10.276  0.00  0.00    +0.000 HD
BRANCH  24  27
ATOM     27  C   UNL     1      -3.971   6.772 -11.576  0.00  0.00    +0.000 C 
ATOM     28  H   UNL     1      -4.141   5.746 -11.916  0.00  0.00    +0.000 HD
ATOM     29  H   UNL     1      -3.649   7.368 -12.434  0.00  0.00    +0.000 HD
ATOM     30  H   UNL     1      -4.924   7.174 -11.217  0.00  0.00    +0.000 HD
ENDBRANCH  24  27
ENDBRANCH  21  24
ENDBRANCH  18  21
ENDBRANCH   1  18
TORSDOF 6
ENDMDL
MODEL 2
REMARK VINA RESULT:    -4.969      1.549      2.634
REMARK INTER + INTRA:          -6.890
REMARK INTER:                  -6.327
REMARK INTRA:                  -0.563
REMARK UNBOUND:                -0.324
REMARK  Name = 12813
REMARK  6 active torsions:
REMARK  status: ('A' for Active; 'I' for Inactive)
REMARK    1  A    between atoms: C_3  and  C_4
REMARK    2  A    between atoms: C_4  and  C_6
REMARK    3  A    between atoms: C_6  and  C_7
REMARK    4  A    between atoms: C_7  and  C_9
REMARK    5  A    between atoms: C_9  and  C_11
REMARK    6  A    between atoms: C_11  and  C_12
REMARK                            x       y       z     vdW  Elec       q    Type
REMARK                         _______ _______ _______ _____ _____    ______ ____
ROOT
ATOM      1  C   UNL     1      -2.991   7.046 -12.116  0.00  0.00    +0.000 C 
ATOM      2  H   UNL     1      -3.072   7.877 -12.828  0.00  0.00    +0.000 HD
ATOM      3  H   UNL     1      -3.346   6.144 -12.629  0.00  0.00    +0.000 HD
ENDROOT
BRANCH   1   4
ATOM      4  C   UNL     1      -1.533   6.871 -11.695  0.00  0.00    +0.000 C 
ATOM      5  H   UNL     1      -1.428   7.073 -10.622  0.00  0.00    +0.000 HD
ATOM      6  H   UNL     1      -1.248   5.824 -11.862  0.00  0.00    +0.000 HD
BRANCH   4   9
ATOM      7  O   UNL     1      -0.667   9.111 -11.947  0.00  0.00    +0.000 OA
ATOM      8  O   UNL     1      -0.449  11.225 -12.812  0.00  0.00    +0.000 OA
ATOM      9  C   UNL     1      -0.613   7.783 -12.483  0.00  0.00    +0.000 C 
ATOM     10  C   UNL     1      -1.027   7.945 -13.929  0.00  0.00    +0.000 C 
ATOM     11  C   UNL     1      -0.449   9.296 -14.276  0.00  0.00    +0.000 C 
ATOM     12  C   UNL     1      -0.528  10.017 -12.964  0.00  0.00    +0.000 C 
ATOM     13  H   UNL     1       0.426   7.435 -12.411  0.00  0.00    +0.000 HD
ATOM     14  H   UNL     1      -2.119   7.983 -14.023  0.00  0.00    +0.000 HD
ATOM     15  H   UNL     1      -0.661   7.140 -14.572  0.00  0.00    +0.000 HD
ATOM     16  H   UNL     1      -1.042   9.802 -15.041  0.00  0.00    +0.000 HD
ATOM     17  H   UNL     1       0.599   9.224 -14.583  0.00  0.00    +0.000 HD
ENDBRANCH   4   9
ENDBRANCH   1   4
BRANCH   1  18
ATOM     18  C   UNL     1      -3.890   7.320 -10.907  0.00  0.00    +0.000 C 
ATOM     19  H   UNL     1      -4.833   6.769 -11.015  0.00  0.00    +0.000 HD
ATOM     20  H   UNL     1      -4.142   8.387 -10.868  0.00  0.00    +0.000 HD
BRANCH  18  21
ATOM     21  C   UNL     1      -3.204   6.912  -9.602  0.00  0.00    +0.000 C 
ATOM     22  H   UNL     1      -2.177   6.589  -9.817  0.00  0.00    +0.000 HD
ATOM     23  H   UNL     1      -3.724   6.045  -9.176  0.00  0.00    +0.000 HD
BRANCH  21  24
ATOM     24  C   UNL     1      -3.164   8.033  -8.561  0.00  0.00    +0.000 C 
ATOM     25  H   UNL     1      -4.151   8.128  -8.093  0.00  0.00    +0.000 HD
ATOM     26  H   UNL     1      -2.458   7.763  -7.766  0.00  0.00    +0.000 HD
BRANCH  24  27
ATOM     27  C   UNL     1      -2.761   9.381  -9.137  0.00  0.00    +0.000 C 
ATOM     28  H   UNL     1      -1.712   9.363  -9.448  0.00  0.00    +0.000 HD
ATOM     29  H   UNL     1      -2.883  10.175  -8.393  0.00  0.00    +0.000 HD
ATOM     30  H   UNL     1      -3.372   9.631 -10.010  0.00  0.00    +0.000 HD
ENDBRANCH  24  27
ENDBRANCH  21  24
ENDBRANCH  18  21
ENDBRANCH   1  18
TORSDOF 6
ENDMDL
MODEL 3
REMARK VINA RESULT:    -4.958     25.610     27.886
REMARK INTER + INTRA:          -6.876
REMARK INTER:                  -6.602
REMARK INTRA:                  -0.274
REMARK UNBOUND:                -0.324
REMARK  Name = 12813
REMARK  6 active torsions:
REMARK  status: ('A' for Active; 'I' for Inactive)
REMARK    1  A    between atoms: C_3  and  C_4
REMARK    2  A    between atoms: C_4  and  C_6
REMARK    3  A    between atoms: C_6  and  C_7
REMARK    4  A    between atoms: C_7  and  C_9
REMARK    5  A    between atoms: C_9  and  C_11
REMARK    6  A    between atoms: C_11  and  C_12
REMARK                            x       y       z     vdW  Elec       q    Type
REMARK                         _______ _______ _______ _____ _____    ______ ____
ROOT
ATOM      1  C   UNL     1     -20.327  -3.914   4.264  0.00  0.00    +0.000 C 
ATOM      2  H   UNL     1     -20.972  -3.963   3.378  0.00  0.00    +0.000 HD
ATOM      3  H   UNL     1     -19.691  -3.028   4.153  0.00  0.00    +0.000 HD
ENDROOT
BRANCH   1   4
ATOM      4  C   UNL     1     -21.189  -3.786   5.519  0.00  0.00    +0.000 C 
ATOM      5  H   UNL     1     -22.226  -3.565   5.238  0.00  0.00    +0.000 HD
ATOM      6  H   UNL     1     -21.188  -4.753   6.040  0.00  0.00    +0.000 HD
BRANCH   4   9
ATOM      7  O   UNL     1     -21.552  -2.549   7.562  0.00  0.00    +0.000 OA
ATOM      8  O   UNL     1     -22.176  -0.800   8.909  0.00  0.00    +0.000 OA
ATOM      9  C   UNL     1     -20.666  -2.706   6.445  0.00  0.00    +0.000 C 
ATOM     10  C   UNL     1     -20.624  -1.337   5.804  0.00  0.00    +0.000 C 
ATOM     11  C   UNL     1     -20.735  -0.421   6.999  0.00  0.00    +0.000 C 
ATOM     12  C   UNL     1     -21.579  -1.232   7.937  0.00  0.00    +0.000 C 
ATOM     13  H   UNL     1     -19.679  -2.983   6.838  0.00  0.00    +0.000 HD
ATOM     14  H   UNL     1     -21.490  -1.184   5.148  0.00  0.00    +0.000 HD
ATOM     15  H   UNL     1     -19.719  -1.168   5.213  0.00  0.00    +0.000 HD
ATOM     16  H   UNL     1     -21.227   0.520   6.739  0.00  0.00    +0.000 HD
ATOM     17  H   UNL     1     -19.762  -0.235   7.462  0.00  0.00    +0.000 HD
ENDBRANCH   4   9
ENDBRANCH   1   4
BRANCH   1  18
ATOM     18  C   UNL     1     -19.442  -5.162   4.321  0.00  0.00    +0.000 C 
ATOM     19  H   UNL     1     -19.843  -5.867   5.059  0.00  0.00    +0.000 HD
ATOM     20  H   UNL     1     -18.434  -4.884   4.653  0.00  0.00    +0.000 HD
BRANCH  18  21
ATOM     21  C   UNL     1     -19.356  -5.844   2.954  0.00  0.00    +0.000 C 
ATOM     22  H   UNL     1     -20.342  -6.242   2.685  0.00  0.00    +0.000 HD
ATOM     23  H   UNL     1     -18.676  -6.702   3.021  0.00  0.00    +0.000 HD
BRANCH  21  24
ATOM     24  C   UNL     1     -18.876  -4.911   1.840  0.00  0.00    +0.000 C 
ATOM     25  H   UNL     1     -19.295  -5.244   0.883  0.00  0.00    +0.000 HD
ATOM     26  H   UNL     1     -19.262  -3.901   2.023  0.00  0.00    +0.000 HD
BRANCH  24  27
ATOM     27  C   UNL     1     -17.362  -4.843   1.716  0.00  0.00    +0.000 C 
ATOM     28  H   UNL     1     -16.900  -4.827   2.708  0.00  0.00    +0.000 HD
ATOM     29  H   UNL     1     -17.055  -3.939   1.182  0.00  0.00    +0.000 HD
ATOM     30  H   UNL     1     -16.974  -5.711   1.174  0.00  0.00    +0.000 HD
ENDBRANCH  24  27
ENDBRANCH  21  24
ENDBRANCH  18  21
ENDBRANCH   1  18
TORSDOF 6
ENDMDL
MODEL 4
REMARK VINA RESULT:    -4.937      1.526      1.886
REMARK INTER + INTRA:          -6.848
REMARK INTER:                  -6.339
REMARK INTRA:                  -0.508
REMARK UNBOUND:                -0.324
REMARK  Name = 12813
REMARK  6 active torsions:
REMARK  status: ('A' for Active; 'I' for Inactive)
REMARK    1  A    between atoms: C_3  and  C_4
REMARK    2  A    between atoms: C_4  and  C_6
REMARK    3  A    between atoms: C_6  and  C_7
REMARK    4  A    between atoms: C_7  and  C_9
REMARK    5  A    between atoms: C_9  and  C_11
REMARK    6  A    between atoms: C_11  and  C_12
REMARK                            x       y       z     vdW  Elec       q    Type
REMARK                         _______ _______ _______ _____ _____    ______ ____
ROOT
ATOM      1  C   UNL     1      -2.591   9.793 -10.874  0.00  0.00    +0.000 C 
ATOM      2  H   UNL     1      -3.000  10.686 -11.362  0.00  0.00    +0.000 HD
ATOM      3  H   UNL     1      -3.075   8.923 -11.332  0.00  0.00    +0.000 HD
ENDROOT
BRANCH   1   4
ATOM      4  C   UNL     1      -1.080   9.732 -11.100  0.00  0.00    +0.000 C 
ATOM      5  H   UNL     1      -0.713  10.713 -11.426  0.00  0.00    +0.000 HD
ATOM      6  H   UNL     1      -0.597   9.500 -10.143  0.00  0.00    +0.000 HD
BRANCH   4   9
ATOM      7  O   UNL     1       0.085   9.263 -13.163  0.00  0.00    +0.000 OA
ATOM      8  O   UNL     1       0.373   8.883 -15.407  0.00  0.00    +0.000 OA
ATOM      9  C   UNL     1      -0.715   8.678 -12.127  0.00  0.00    +0.000 C 
ATOM     10  C   UNL     1      -1.913   8.111 -12.854  0.00  0.00    +0.000 C 
ATOM     11  C   UNL     1      -1.309   7.662 -14.164  0.00  0.00    +0.000 C 
ATOM     12  C   UNL     1      -0.206   8.659 -14.357  0.00  0.00    +0.000 C 
ATOM     13  H   UNL     1      -0.126   7.877 -11.661  0.00  0.00    +0.000 HD
ATOM     14  H   UNL     1      -2.660   8.890 -13.048  0.00  0.00    +0.000 HD
ATOM     15  H   UNL     1      -2.404   7.302 -12.306  0.00  0.00    +0.000 HD
ATOM     16  H   UNL     1      -2.035   7.713 -14.979  0.00  0.00    +0.000 HD
ATOM     17  H   UNL     1      -0.877   6.660 -14.091  0.00  0.00    +0.000 HD
ENDBRANCH   4   9
ENDBRANCH   1   4
BRANCH   1  18
ATOM     18  C   UNL     1      -2.929   9.826  -9.381  0.00  0.00    +0.000 C 
ATOM     19  H   UNL     1      -3.948  10.206  -9.241  0.00  0.00    +0.000 HD
ATOM     20  H   UNL     1      -2.252  10.516  -8.864  0.00  0.00    +0.000 HD
BRANCH  18  21
ATOM     21  C   UNL     1      -2.810   8.434  -8.755  0.00  0.00    +0.000 C 
ATOM     22  H   UNL     1      -3.303   8.434  -7.775  0.00  0.00    +0.000 HD
ATOM     23  H   UNL     1      -1.751   8.209  -8.576  0.00  0.00    +0.000 HD
BRANCH  21  24
ATOM     24  C   UNL     1      -3.418   7.327  -9.618  0.00  0.00    +0.000 C 
ATOM     25  H   UNL     1      -3.899   7.774 -10.496  0.00  0.00    +0.000 HD
ATOM     26  H   UNL     1      -2.616   6.677  -9.991  0.00  0.00    +0.000 HD
BRANCH  24  27
ATOM     27  C   UNL     1      -4.437   6.473  -8.880  0.00  0.00    +0.000 C 
ATOM     28  H   UNL     1      -3.972   5.989  -8.016  0.00  0.00    +0.000 HD
ATOM     29  H   UNL     1      -4.839   5.693  -9.533  0.00  0.00    +0.000 HD
ATOM     30  H   UNL     1      -5.271   7.084  -8.521  0.00  0.00    +0.000 HD
ENDBRANCH  24  27
ENDBRANCH  21  24
ENDBRANCH  18  21
ENDBRANCH   1  18
TORSDOF 6
ENDMDL
MODEL 5
REMARK VINA RESULT:    -4.799     18.316     20.716
REMARK INTER + INTRA:          -6.665
REMARK INTER:                  -6.314
REMARK INTRA:                  -0.352
REMARK UNBOUND:                -0.324
REMARK  Name = 12813
REMARK  6 active torsions:
REMARK  status: ('A' for Active; 'I' for Inactive)
REMARK    1  A    between atoms: C_3  and  C_4
REMARK    2  A    between atoms: C_4  and  C_6
REMARK    3  A    between atoms: C_6  and  C_7
REMARK    4  A    between atoms: C_7  and  C_9
REMARK    5  A    between atoms: C_9  and  C_11
REMARK    6  A    between atoms: C_11  and  C_12
REMARK                            x       y       z     vdW  Elec       q    Type
REMARK                         _______ _______ _______ _____ _____    ______ ____
ROOT
ATOM      1  C   UNL     1      -8.373  10.432   6.448  0.00  0.00    +0.000 C 
ATOM      2  H   UNL     1      -7.373  10.615   6.861  0.00  0.00    +0.000 HD
ATOM      3  H   UNL     1      -8.409   9.379   6.142  0.00  0.00    +0.000 HD
ENDROOT
BRANCH   1   4
ATOM      4  C   UNL     1      -9.429  10.703   7.519  0.00  0.00    +0.000 C 
ATOM      5  H   UNL     1      -9.828  11.718   7.398  0.00  0.00    +0.000 HD
ATOM      6  H   UNL     1     -10.260  10.002   7.371  0.00  0.00    +0.000 HD
BRANCH   4   9
ATOM      7  O   UNL     1      -7.662  11.313   9.049  0.00  0.00    +0.000 OA
ATOM      8  O   UNL     1      -5.715  11.104  10.245  0.00  0.00    +0.000 OA
ATOM      9  C   UNL     1      -8.860  10.536   8.914  0.00  0.00    +0.000 C 
ATOM     10  C   UNL     1      -8.426   9.120   9.218  0.00  0.00    +0.000 C 
ATOM     11  C   UNL     1      -7.364   9.331  10.271  0.00  0.00    +0.000 C 
ATOM     12  C   UNL     1      -6.787  10.656   9.872  0.00  0.00    +0.000 C 
ATOM     13  H   UNL     1      -9.577  10.894   9.665  0.00  0.00    +0.000 HD
ATOM     14  H   UNL     1      -7.973   8.651   8.336  0.00  0.00    +0.000 HD
ATOM     15  H   UNL     1      -9.248   8.482   9.555  0.00  0.00    +0.000 HD
ATOM     16  H   UNL     1      -6.606   8.544  10.239  0.00  0.00    +0.000 HD
ATOM     17  H   UNL     1      -7.795   9.414  11.273  0.00  0.00    +0.000 HD
ENDBRANCH   4   9
ENDBRANCH   1   4
BRANCH   1  18
ATOM     18  C   UNL     1      -8.588  11.317   5.217  0.00  0.00    +0.000 C 
ATOM     19  H   UNL     1      -9.252  12.151   5.473  0.00  0.00    +0.000 HD
ATOM     20  H   UNL     1      -9.084  10.738   4.428  0.00  0.00    +0.000 HD
BRANCH  18  21
ATOM     21  C   UNL     1      -7.260  11.862   4.687  0.00  0.00    +0.000 C 
ATOM     22  H   UNL     1      -7.162  11.610   3.624  0.00  0.00    +0.000 HD
ATOM     23  H   UNL     1      -6.432  11.364   5.207  0.00  0.00    +0.000 HD
BRANCH  21  24
ATOM     24  C   UNL     1      -7.116  13.376   4.853  0.00  0.00    +0.000 C 
ATOM     25  H   UNL     1      -6.848  13.823   3.889  0.00  0.00    +0.000 HD
ATOM     26  H   UNL     1      -8.085  13.802   5.143  0.00  0.00    +0.000 HD
BRANCH  24  27
ATOM     27  C   UNL     1      -6.076  13.778   5.887  0.00  0.00    +0.000 C 
ATOM     28  H   UNL     1      -5.383  12.951   6.069  0.00  0.00    +0.000 HD
ATOM     29  H   UNL     1      -6.551  14.040   6.837  0.00  0.00    +0.000 HD
ATOM     30  H   UNL     1      -5.496  14.640   5.543  0.00  0.00    +0.000 HD
ENDBRANCH  24  27
ENDBRANCH  21  24
ENDBRANCH  18  21
ENDBRANCH   1  18
TORSDOF 6
ENDMDL
MODEL 6
REMARK VINA RESULT:    -4.674      1.376      2.934
REMARK INTER + INTRA:          -6.500
REMARK INTER:                  -5.754
REMARK INTRA:                  -0.746
REMARK UNBOUND:                -0.324
REMARK  Name = 12813
REMARK  6 active torsions:
REMARK  status: ('A' for Active; 'I' for Inactive)
REMARK    1  A    between atoms: C_3  and  C_4
REMARK    2  A    between atoms: C_4  and  C_6
REMARK    3  A    between atoms: C_6  and  C_7
REMARK    4  A    between atoms: C_7  and  C_9
REMARK    5  A    between atoms: C_9  and  C_11
REMARK    6  A    between atoms: C_11  and  C_12
REMARK                            x       y       z     vdW  Elec       q    Type
REMARK                         _______ _______ _______ _____ _____    ______ ____
ROOT
ATOM      1  C   UNL     1      -3.789   7.607 -11.123  0.00  0.00    +0.000 C 
ATOM      2  H   UNL     1      -3.538   8.655 -11.329  0.00  0.00    +0.000 HD
ATOM      3  H   UNL     1      -4.882   7.541 -11.067  0.00  0.00    +0.000 HD
ENDROOT
BRANCH   1   4
ATOM      4  C   UNL     1      -3.266   6.721 -12.253  0.00  0.00    +0.000 C 
ATOM      5  H   UNL     1      -2.516   6.024 -11.862  0.00  0.00    +0.000 HD
ATOM      6  H   UNL     1      -4.103   6.124 -12.639  0.00  0.00    +0.000 HD
BRANCH   4   9
ATOM      7  O   UNL     1      -1.240   7.584 -13.244  0.00  0.00    +0.000 OA
ATOM      8  O   UNL     1       0.401   9.105 -13.753  0.00  0.00    +0.000 OA
ATOM      9  C   UNL     1      -2.667   7.547 -13.374  0.00  0.00    +0.000 C 
ATOM     10  C   UNL     1      -3.085   9.000 -13.337  0.00  0.00    +0.000 C 
ATOM     11  C   UNL     1      -1.934   9.682 -14.037  0.00  0.00    +0.000 C 
ATOM     12  C   UNL     1      -0.778   8.802 -13.666  0.00  0.00    +0.000 C 
ATOM     13  H   UNL     1      -2.903   7.098 -14.348  0.00  0.00    +0.000 HD
ATOM     14  H   UNL     1      -3.148   9.364 -12.304  0.00  0.00    +0.000 HD
ATOM     15  H   UNL     1      -4.051   9.181 -13.817  0.00  0.00    +0.000 HD
ATOM     16  H   UNL     1      -1.789  10.701 -13.671  0.00  0.00    +0.000 HD
ATOM     17  H   UNL     1      -2.056   9.673 -15.124  0.00  0.00    +0.000 HD
ENDBRANCH   4   9
ENDBRANCH   1   4
BRANCH   1  18
ATOM     18  C   UNL     1      -3.195   7.196  -9.773  0.00  0.00    +0.000 C 
ATOM     19  H   UNL     1      -2.308   6.571  -9.934  0.00  0.00    +0.000 HD
ATOM     20  H   UNL     1      -3.922   6.590  -9.218  0.00  0.00    +0.000 HD
BRANCH  18  21
ATOM     21  C   UNL     1      -2.813   8.421  -8.938  0.00  0.00    +0.000 C 
ATOM     22  H   UNL     1      -1.855   8.235  -8.438  0.00  0.00    +0.000 HD
ATOM     23  H   UNL     1      -3.560   8.565  -8.147  0.00  0.00    +0.000 HD
BRANCH  21  24
ATOM     24  C   UNL     1      -2.702   9.705  -9.762  0.00  0.00    +0.000 C 
ATOM     25  H   UNL     1      -3.359   9.633 -10.637  0.00  0.00    +0.000 HD
ATOM     26  H   UNL     1      -3.061  10.551  -9.164  0.00  0.00    +0.000 HD
BRANCH  24  27
ATOM     27  C   UNL     1      -1.287  10.004 -10.233  0.00  0.00    +0.000 C 
ATOM     28  H   UNL     1      -0.818  10.745  -9.579  0.00  0.00    +0.000 HD
ATOM     29  H   UNL     1      -1.291  10.401 -11.252  0.00  0.00    +0.000 HD
ATOM     30  H   UNL     1      -0.672   9.099 -10.219  0.00  0.00    +0.000 HD
ENDBRANCH  24  27
ENDBRANCH  21  24
ENDBRANCH  18  21
ENDBRANCH   1  18
TORSDOF 6
ENDMDL
MODEL 7
REMARK VINA RESULT:    -4.666      3.004      4.294
REMARK INTER + INTRA:          -6.490
REMARK INTER:                  -6.142
REMARK INTRA:                  -0.348
REMARK UNBOUND:                -0.324
REMARK  Name = 12813
REMARK  6 active torsions:
REMARK  status: ('A' for Active; 'I' for Inactive)
REMARK    1  A    between atoms: C_3  and  C_4
REMARK    2  A    between atoms: C_4  and  C_6
REMARK    3  A    between atoms: C_6  and  C_7
REMARK    4  A    between atoms: C_7  and  C_9
REMARK    5  A    between atoms: C_9  and  C_11
REMARK    6  A    between atoms: C_11  and  C_12
REMARK                            x       y       z     vdW  Elec       q    Type
REMARK                         _______ _______ _______ _____ _____    ______ ____
ROOT
ATOM      1  C   UNL     1      -5.235   6.523 -10.595  0.00  0.00    +0.000 C 
ATOM      2  H   UNL     1      -5.454   7.537 -10.950  0.00  0.00    +0.000 HD
ATOM      3  H   UNL     1      -4.781   5.978 -11.431  0.00  0.00    +0.000 HD
ENDROOT
BRANCH   1   4
ATOM      4  C   UNL     1      -4.258   6.590  -9.421  0.00  0.00    +0.000 C 
ATOM      5  H   UNL     1      -4.615   7.318  -8.682  0.00  0.00    +0.000 HD
ATOM      6  H   UNL     1      -4.238   5.607  -8.932  0.00  0.00    +0.000 HD
BRANCH   4   9
ATOM      7  O   UNL     1      -2.617   8.350  -9.617  0.00  0.00    +0.000 OA
ATOM      8  O   UNL     1      -1.371   9.999 -10.614  0.00  0.00    +0.000 OA
ATOM      9  C   UNL     1      -2.862   6.962  -9.880  0.00  0.00    +0.000 C 
ATOM     10  C   UNL     1      -2.666   6.823 -11.373  0.00  0.00    +0.000 C 
ATOM     11  C   UNL     1      -1.560   7.815 -11.643  0.00  0.00    +0.000 C 
ATOM     12  C   UNL     1      -1.821   8.865 -10.605  0.00  0.00    +0.000 C 
ATOM     13  H   UNL     1      -2.111   6.379  -9.331  0.00  0.00    +0.000 HD
ATOM     14  H   UNL     1      -3.568   7.128 -11.917  0.00  0.00    +0.000 HD
ATOM     15  H   UNL     1      -2.417   5.803 -11.679  0.00  0.00    +0.000 HD
ATOM     16  H   UNL     1      -1.631   8.230 -12.651  0.00  0.00    +0.000 HD
ATOM     17  H   UNL     1      -0.572   7.379 -11.471  0.00  0.00    +0.000 HD
ENDBRANCH   4   9
ENDBRANCH   1   4
BRANCH   1  18
ATOM     18  C   UNL     1      -6.539   5.828 -10.195  0.00  0.00    +0.000 C 
ATOM     19  H   UNL     1      -6.606   4.852 -10.691  0.00  0.00    +0.000 HD
ATOM     20  H   UNL     1      -7.395   6.424 -10.537  0.00  0.00    +0.000 HD
BRANCH  18  21
ATOM     21  C   UNL     1      -6.625   5.640  -8.679  0.00  0.00    +0.000 C 
ATOM     22  H   UNL     1      -7.315   6.383  -8.259  0.00  0.00    +0.000 HD
ATOM     23  H   UNL     1      -5.641   5.837  -8.235  0.00  0.00    +0.000 HD
BRANCH  21  24
ATOM     24  C   UNL     1      -7.090   4.242  -8.266  0.00  0.00    +0.000 C 
ATOM     25  H   UNL     1      -7.699   3.811  -9.070  0.00  0.00    +0.000 HD
ATOM     26  H   UNL     1      -6.216   3.591  -8.145  0.00  0.00    +0.000 HD
BRANCH  24  27
ATOM     27  C   UNL     1      -7.895   4.226  -6.976  0.00  0.00    +0.000 C 
ATOM     28  H   UNL     1      -8.364   5.201  -6.809  0.00  0.00    +0.000 HD
ATOM     29  H   UNL     1      -7.254   4.004  -6.119  0.00  0.00    +0.000 HD
ATOM     30  H   UNL     1      -8.686   3.471  -7.019  0.00  0.00    +0.000 HD
ENDBRANCH  24  27
ENDBRANCH  21  24
ENDBRANCH  18  21
ENDBRANCH   1  18
TORSDOF 6
ENDMDL
MODEL 8
REMARK VINA RESULT:    -4.562      2.095      3.100
REMARK INTER + INTRA:          -6.352
REMARK INTER:                  -6.128
REMARK INTRA:                  -0.224
REMARK UNBOUND:                -0.324
REMARK  Name = 12813
REMARK  6 active torsions:
REMARK  status: ('A' for Active; 'I' for Inactive)
REMARK    1  A    between atoms: C_3  and  C_4
REMARK    2  A    between atoms: C_4  and  C_6
REMARK    3  A    between atoms: C_6  and  C_7
REMARK    4  A    between atoms: C_7  and  C_9
REMARK    5  A    between atoms: C_9  and  C_11
REMARK    6  A    between atoms: C_11  and  C_12
REMARK                            x       y       z     vdW  Elec       q    Type
REMARK                         _______ _______ _______ _____ _____    ______ ____
ROOT
ATOM      1  C   UNL     1      -1.131   8.117 -11.960  0.00  0.00    +0.000 C 
ATOM      2  H   UNL     1      -0.178   8.246 -11.432  0.00  0.00    +0.000 HD
ATOM      3  H   UNL     1      -1.788   8.937 -11.646  0.00  0.00    +0.000 HD
ENDROOT
BRANCH   1   4
ATOM      4  C   UNL     1      -0.894   8.183 -13.468  0.00  0.00    +0.000 C 
ATOM      5  H   UNL     1      -0.620   7.190 -13.846  0.00  0.00    +0.000 HD
ATOM      6  H   UNL     1      -1.835   8.472 -13.954  0.00  0.00    +0.000 HD
BRANCH   4   9
ATOM      7  O   UNL     1      -0.273  10.516 -13.558  0.00  0.00    +0.000 OA
ATOM      8  O   UNL     1       0.116  12.581 -14.477  0.00  0.00    +0.000 OA
ATOM      9  C   UNL     1       0.190   9.184 -13.818  0.00  0.00    +0.000 C 
ATOM     10  C   UNL     1       0.547   9.191 -15.287  0.00  0.00    +0.000 C 
ATOM     11  C   UNL     1       1.069  10.594 -15.482  0.00  0.00    +0.000 C 
ATOM     12  C   UNL     1       0.259  11.370 -14.486  0.00  0.00    +0.000 C 
ATOM     13  H   UNL     1       1.082   9.013 -13.200  0.00  0.00    +0.000 HD
ATOM     14  H   UNL     1      -0.344   9.046 -15.908  0.00  0.00    +0.000 HD
ATOM     15  H   UNL     1       1.274   8.419 -15.555  0.00  0.00    +0.000 HD
ATOM     16  H   UNL     1       0.890  10.951 -16.499  0.00  0.00    +0.000 HD
ATOM     17  H   UNL     1       2.128  10.675 -15.223  0.00  0.00    +0.000 HD
ENDBRANCH   4   9
ENDBRANCH   1   4
BRANCH   1  18
ATOM     18  C   UNL     1      -1.766   6.785 -11.554  0.00  0.00    +0.000 C 
ATOM     19  H   UNL     1      -1.133   6.284 -10.811  0.00  0.00    +0.000 HD
ATOM     20  H   UNL     1      -1.826   6.123 -12.427  0.00  0.00    +0.000 HD
BRANCH  18  21
ATOM     21  C   UNL     1      -3.168   6.992 -10.976  0.00  0.00    +0.000 C 
ATOM     22  H   UNL     1      -3.855   6.260 -11.419  0.00  0.00    +0.000 HD
ATOM     23  H   UNL     1      -3.535   7.984 -11.267  0.00  0.00    +0.000 HD
BRANCH  21  24
ATOM     24  C   UNL     1      -3.221   6.865  -9.453  0.00  0.00    +0.000 C 
ATOM     25  H   UNL     1      -4.168   6.395  -9.161  0.00  0.00    +0.000 HD
ATOM     26  H   UNL     1      -2.418   6.197  -9.117  0.00  0.00    +0.000 HD
BRANCH  24  27
ATOM     27  C   UNL     1      -3.088   8.195  -8.727  0.00  0.00    +0.000 C 
ATOM     28  H   UNL     1      -3.989   8.798  -8.872  0.00  0.00    +0.000 HD
ATOM     29  H   UNL     1      -2.232   8.761  -9.106  0.00  0.00    +0.000 HD
ATOM     30  H   UNL     1      -2.950   8.041  -7.652  0.00  0.00    +0.000 HD
ENDBRANCH  24  27
ENDBRANCH  21  24
ENDBRANCH  18  21
ENDBRANCH   1  18
TORSDOF 6
ENDMDL
MODEL 9
REMARK VINA RESULT:    -4.547     18.909     21.267
REMARK INTER + INTRA:          -6.332
REMARK INTER:                  -6.031
REMARK INTRA:                  -0.301
REMARK UNBOUND:                -0.324
REMARK  Name = 12813
REMARK  6 active torsions:
REMARK  status: ('A' for Active; 'I' for Inactive)
REMARK    1  A    between atoms: C_3  and  C_4
REMARK    2  A    between atoms: C_4  and  C_6
REMARK    3  A    between atoms: C_6  and  C_7
REMARK    4  A    between atoms: C_7  and  C_9
REMARK    5  A    between atoms: C_9  and  C_11
REMARK    6  A    between atoms: C_11  and  C_12
REMARK                            x       y       z     vdW  Elec       q    Type
REMARK                         _______ _______ _______ _____ _____    ______ ____
ROOT
ATOM      1  C   UNL     1      -9.469  10.852   6.469  0.00  0.00    +0.000 C 
ATOM      2  H   UNL     1      -9.994   9.934   6.180  0.00  0.00    +0.000 HD
ATOM      3  H   UNL     1     -10.035  11.694   6.053  0.00  0.00    +0.000 HD
ENDROOT
BRANCH   1   4
ATOM      4  C   UNL     1      -9.418  10.956   7.993  0.00  0.00    +0.000 C 
ATOM      5  H   UNL     1      -8.562  11.572   8.295  0.00  0.00    +0.000 HD
ATOM      6  H   UNL     1     -10.328  11.466   8.335  0.00  0.00    +0.000 HD
BRANCH   4   9
ATOM      7  O   UNL     1     -10.247   9.503   9.735  0.00  0.00    +0.000 OA
ATOM      8  O   UNL     1     -10.288   8.397  11.744  0.00  0.00    +0.000 OA
ATOM      9  C   UNL     1      -9.323   9.589   8.641  0.00  0.00    +0.000 C 
ATOM     10  C   UNL     1      -7.974   9.315   9.266  0.00  0.00    +0.000 C 
ATOM     11  C   UNL     1      -8.318   8.309  10.339  0.00  0.00    +0.000 C 
ATOM     12  C   UNL     1      -9.707   8.724  10.723  0.00  0.00    +0.000 C 
ATOM     13  H   UNL     1      -9.586   8.804   7.919  0.00  0.00    +0.000 HD
ATOM     14  H   UNL     1      -7.568  10.220   9.735  0.00  0.00    +0.000 HD
ATOM     15  H   UNL     1      -7.236   8.946   8.549  0.00  0.00    +0.000 HD
ATOM     16  H   UNL     1      -7.635   8.380  11.189  0.00  0.00    +0.000 HD
ATOM     17  H   UNL     1      -8.344   7.288   9.947  0.00  0.00    +0.000 HD
ENDBRANCH   4   9
ENDBRANCH   1   4
BRANCH   1  18
ATOM     18  C   UNL     1      -8.062  10.848   5.864  0.00  0.00    +0.000 C 
ATOM     19  H   UNL     1      -7.736   9.815   5.692  0.00  0.00    +0.000 HD
ATOM     20  H   UNL     1      -7.355  11.298   6.572  0.00  0.00    +0.000 HD
BRANCH  18  21
ATOM     21  C   UNL     1      -8.024  11.624   4.546  0.00  0.00    +0.000 C 
ATOM     22  H   UNL     1      -8.985  11.509   4.029  0.00  0.00    +0.000 HD
ATOM     23  H   UNL     1      -7.260  11.186   3.891  0.00  0.00    +0.000 HD
BRANCH  21  24
ATOM     24  C   UNL     1      -7.733  13.115   4.727  0.00  0.00    +0.000 C 
ATOM     25  H   UNL     1      -7.904  13.636   3.778  0.00  0.00    +0.000 HD
ATOM     26  H   UNL     1      -8.440  13.536   5.454  0.00  0.00    +0.000 HD
BRANCH  24  27
ATOM     27  C   UNL     1      -6.316  13.404   5.199  0.00  0.00    +0.000 C 
ATOM     28  H   UNL     1      -5.690  12.514   5.086  0.00  0.00    +0.000 HD
ATOM     29  H   UNL     1      -6.308  13.697   6.252  0.00  0.00    +0.000 HD
ATOM     30  H   UNL     1      -5.868  14.213   4.613  0.00  0.00    +0.000 HD
ENDBRANCH  24  27
ENDBRANCH  21  24
ENDBRANCH  18  21
ENDBRANCH   1  18
TORSDOF 6
ENDMDL
MODEL 10
REMARK VINA RESULT:    -4.524      5.139      6.849
REMARK INTER + INTRA:          -6.302
REMARK INTER:                  -5.978
REMARK INTRA:                  -0.324
REMARK UNBOUND:                -0.324
REMARK  Name = 12813
REMARK  6 active torsions:
REMARK  status: ('A' for Active; 'I' for Inactive)
REMARK    1  A    between atoms: C_3  and  C_4
REMARK    2  A    between atoms: C_4  and  C_6
REMARK    3  A    between atoms: C_6  and  C_7
REMARK    4  A    between atoms: C_7  and  C_9
REMARK    5  A    between atoms: C_9  and  C_11
REMARK    6  A    between atoms: C_11  and  C_12
REMARK                            x       y       z     vdW  Elec       q    Type
REMARK                         _______ _______ _______ _____ _____    ______ ____
ROOT
ATOM      1  C   UNL     1      -7.411   5.868  -7.243  0.00  0.00    +0.000 C 
ATOM      2  H   UNL     1      -7.507   4.827  -6.913  0.00  0.00    +0.000 HD
ATOM      3  H   UNL     1      -6.413   6.211  -6.948  0.00  0.00    +0.000 HD
ENDROOT
BRANCH   1   4
ATOM      4  C   UNL     1      -7.563   5.940  -8.762  0.00  0.00    +0.000 C 
ATOM      5  H   UNL     1      -8.289   5.190  -9.099  0.00  0.00    +0.000 HD
ATOM      6  H   UNL     1      -7.965   6.928  -9.023  0.00  0.00    +0.000 HD
BRANCH   4   9
ATOM      7  O   UNL     1      -5.165   6.191  -8.633  0.00  0.00    +0.000 OA
ATOM      8  O   UNL     1      -3.097   7.111  -9.010  0.00  0.00    +0.000 OA
ATOM      9  C   UNL     1      -6.237   5.726  -9.464  0.00  0.00    +0.000 C 
ATOM     10  C   UNL     1      -6.098   6.526 -10.739  0.00  0.00    +0.000 C 
ATOM     11  C   UNL     1      -4.600   6.679 -10.859  0.00  0.00    +0.000 C 
ATOM     12  C   UNL     1      -4.174   6.712  -9.422  0.00  0.00    +0.000 C 
ATOM     13  H   UNL     1      -6.073   4.657  -9.654  0.00  0.00    +0.000 HD
ATOM     14  H   UNL     1      -6.556   7.517 -10.632  0.00  0.00    +0.000 HD
ATOM     15  H   UNL     1      -6.553   6.036 -11.605  0.00  0.00    +0.000 HD
ATOM     16  H   UNL     1      -4.331   7.605 -11.372  0.00  0.00    +0.000 HD
ATOM     17  H   UNL     1      -4.141   5.816 -11.349  0.00  0.00    +0.000 HD
ENDBRANCH   4   9
ENDBRANCH   1   4
BRANCH   1  18
ATOM     18  C   UNL     1      -8.463   6.728  -6.537  0.00  0.00    +0.000 C 
ATOM     19  H   UNL     1      -9.177   7.118  -7.273  0.00  0.00    +0.000 HD
ATOM     20  H   UNL     1      -7.979   7.592  -6.066  0.00  0.00    +0.000 HD
BRANCH  18  21
ATOM     21  C   UNL     1      -9.213   5.923  -5.472  0.00  0.00    +0.000 C 
ATOM     22  H   UNL     1     -10.067   5.415  -5.936  0.00  0.00    +0.000 HD
ATOM     23  H   UNL     1      -9.624   6.612  -4.723  0.00  0.00    +0.000 HD
BRANCH  21  24
ATOM     24  C   UNL     1      -8.338   4.884  -4.770  0.00  0.00    +0.000 C 
ATOM     25  H   UNL     1      -7.366   4.827  -5.274  0.00  0.00    +0.000 HD
ATOM     26  H   UNL     1      -8.144   5.210  -3.740  0.00  0.00    +0.000 HD
BRANCH  24  27
ATOM     27  C   UNL     1      -8.955   3.494  -4.736  0.00  0.00    +0.000 C 
ATOM     28  H   UNL     1      -9.663   3.373  -5.560  0.00  0.00    +0.000 HD
ATOM     29  H   UNL     1      -9.492   3.329  -3.797  0.00  0.00    +0.000 HD
ATOM     30  H   UNL     1      -8.184   2.722  -4.832  0.00  0.00    +0.000 HD
ENDBRANCH  24  27
ENDBRANCH  21  24
ENDBRANCH  18  21
ENDBRANCH   1  18
TORSDOF 6
ENDMDL
