MODEL 1
REMARK VINA RESULT:    -5.160      0.000      0.000
REMARK INTER + INTRA:          -8.114
REMARK INTER:                  -7.431
REMARK INTRA:                  -0.683
REMARK UNBOUND:                -0.540
REMARK  Name = 1549026
REMARK  10 active torsions:
REMARK  status: ('A' for Active; 'I' for Inactive)
REMARK    1  A    between atoms: O_1  and  C_10
REMARK    2  A    between atoms: O_1  and  C_13
REMARK    3  A    between atoms: C_3  and  C_4
REMARK    4  A    between atoms: C_3  and  C_5
REMARK    5  A    between atoms: C_4  and  C_6
REMARK    6  A    between atoms: C_5  and  C_8
REMARK    7  A    between atoms: C_7  and  C_10
REMARK    8  A    between atoms: C_9  and  C_11
REMARK    9  A    between atoms: C_9  and  C_12
REMARK   10  A    between atoms: C_13  and  C_14
REMARK                            x       y       z     vdW  Elec       q    Type
REMARK                         _______ _______ _______ _____ _____    ______ ____
ROOT
ATOM      1  C   UNL     1       7.324   7.996   5.231  0.00  0.00    +0.000 C 
ATOM      2  H   UNL     1       8.392   7.834   5.038  0.00  0.00    +0.000 HD
ATOM      3  H   UNL     1       7.015   7.195   5.916  0.00  0.00    +0.000 HD
ENDROOT
BRANCH   1   4
ATOM      4  C   UNL     1       7.141   9.351   5.928  0.00  0.00    +0.000 C 
ATOM      5  H   UNL     1       6.373   9.267   6.701  0.00  0.00    +0.000 HD
ATOM      6  H   UNL     1       6.741  10.060   5.192  0.00  0.00    +0.000 HD
BRANCH   4   7
ATOM      7  C   UNL     1       8.435   9.915   6.446  0.00  0.00    +0.000 C 
ATOM      8  C   UNL     1       9.437  10.475   5.743  0.00  0.00    +0.000 C 
ATOM      9  H   UNL     1       8.557   9.828   7.524  0.00  0.00    +0.000 HD
BRANCH   8  10
ATOM     10  C   UNL     1      10.669  10.980   6.447  0.00  0.00    +0.000 C 
ATOM     11  H   UNL     1      11.296  10.139   6.763  0.00  0.00    +0.000 HD
ATOM     12  H   UNL     1      11.279  11.628   5.809  0.00  0.00    +0.000 HD
ATOM     13  H   UNL     1      10.388  11.557   7.334  0.00  0.00    +0.000 HD
ENDBRANCH   8  10
BRANCH   8  14
ATOM     14  C   UNL     1       9.451  10.672   4.254  0.00  0.00    +0.000 C 
ATOM     15  H   UNL     1      10.330  10.184   3.820  0.00  0.00    +0.000 HD
ATOM     16  H   UNL     1       8.577  10.264   3.744  0.00  0.00    +0.000 HD
ATOM     17  H   UNL     1       9.501  11.740   4.018  0.00  0.00    +0.000 HD
ENDBRANCH   8  14
ENDBRANCH   4   7
ENDBRANCH   1   4
BRANCH   1  18
ATOM     18  C   UNL     1       6.568   7.875   3.924  0.00  0.00    +0.000 C 
ATOM     19  C   UNL     1       6.914   8.486   2.775  0.00  0.00    +0.000 C 
ATOM     20  H   UNL     1       7.824   9.085   2.779  0.00  0.00    +0.000 HD
BRANCH  18  21
ATOM     21  C   UNL     1       5.326   7.022   3.979  0.00  0.00    +0.000 C 
ATOM     22  H   UNL     1       4.962   6.832   2.963  0.00  0.00    +0.000 HD
ATOM     23  H   UNL     1       4.532   7.531   4.533  0.00  0.00    +0.000 HD
ATOM     24  H   UNL     1       5.454   6.052   4.459  0.00  0.00    +0.000 HD
ENDBRANCH  18  21
BRANCH  19  25
ATOM     25  C   UNL     1       6.204   8.442   1.458  0.00  0.00    +0.000 C 
ATOM     26  H   UNL     1       5.482   7.616   1.486  0.00  0.00    +0.000 HD
ATOM     27  H   UNL     1       6.878   8.251   0.618  0.00  0.00    +0.000 HD
BRANCH  25  28
ATOM     28  O   UNL     1       5.507   9.667   1.279  0.00  0.00    +0.000 OA
BRANCH  28  30
ATOM     29  O   UNL     1       3.382  10.048   2.103  0.00  0.00    +0.000 OA
ATOM     30  C   UNL     1       4.142   9.579   1.266  0.00  0.00    +0.000 C 
BRANCH  30  31
ATOM     31  C   UNL     1       3.692   8.811   0.060  0.00  0.00    +0.000 C 
ATOM     32  H   UNL     1       2.613   8.923  -0.069  0.00  0.00    +0.000 HD
ATOM     33  H   UNL     1       3.959   7.758   0.172  0.00  0.00    +0.000 HD
ATOM     34  H   UNL     1       4.192   9.205  -0.829  0.00  0.00    +0.000 HD
ENDBRANCH  30  31
ENDBRANCH  28  30
ENDBRANCH  25  28
ENDBRANCH  19  25
ENDBRANCH   1  18
TORSDOF 10
ENDMDL
MODEL 2
REMARK VINA RESULT:    -5.102     16.903     18.455
REMARK INTER + INTRA:          -8.028
REMARK INTER:                  -7.139
REMARK INTRA:                  -0.889
REMARK UNBOUND:                -0.540
REMARK  Name = 1549026
REMARK  10 active torsions:
REMARK  status: ('A' for Active; 'I' for Inactive)
REMARK    1  A    between atoms: O_1  and  C_10
REMARK    2  A    between atoms: O_1  and  C_13
REMARK    3  A    between atoms: C_3  and  C_4
REMARK    4  A    between atoms: C_3  and  C_5
REMARK    5  A    between atoms: C_4  and  C_6
REMARK    6  A    between atoms: C_5  and  C_8
REMARK    7  A    between atoms: C_7  and  C_10
REMARK    8  A    between atoms: C_9  and  C_11
REMARK    9  A    between atoms: C_9  and  C_12
REMARK   10  A    between atoms: C_13  and  C_14
REMARK                            x       y       z     vdW  Elec       q    Type
REMARK                         _______ _______ _______ _____ _____    ______ ____
ROOT
ATOM      1  C   UNL     1      -1.175   9.921 -10.765  0.00  0.00    +0.000 C 
ATOM      2  H   UNL     1      -0.707  10.890 -10.554  0.00  0.00    +0.000 HD
ATOM      3  H   UNL     1      -0.567   9.171 -10.243  0.00  0.00    +0.000 HD
ENDROOT
BRANCH   1   4
ATOM      4  C   UNL     1      -2.594   9.912 -10.178  0.00  0.00    +0.000 C 
ATOM      5  H   UNL     1      -3.325  10.046 -10.978  0.00  0.00    +0.000 HD
ATOM      6  H   UNL     1      -2.700  10.793  -9.532  0.00  0.00    +0.000 HD
BRANCH   4   7
ATOM      7  C   UNL     1      -2.864   8.696  -9.335  0.00  0.00    +0.000 C 
ATOM      8  C   UNL     1      -3.290   7.485  -9.738  0.00  0.00    +0.000 C 
ATOM      9  H   UNL     1      -2.706   8.851  -8.269  0.00  0.00    +0.000 HD
BRANCH   8  10
ATOM     10  C   UNL     1      -3.512   6.385  -8.733  0.00  0.00    +0.000 C 
ATOM     11  H   UNL     1      -3.789   5.456  -9.244  0.00  0.00    +0.000 HD
ATOM     12  H   UNL     1      -2.619   6.179  -8.133  0.00  0.00    +0.000 HD
ATOM     13  H   UNL     1      -4.318   6.658  -8.045  0.00  0.00    +0.000 HD
ENDBRANCH   8  10
BRANCH   8  14
ATOM     14  C   UNL     1      -3.568   7.089 -11.160  0.00  0.00    +0.000 C 
ATOM     15  H   UNL     1      -2.632   6.834 -11.668  0.00  0.00    +0.000 HD
ATOM     16  H   UNL     1      -4.229   6.226 -11.259  0.00  0.00    +0.000 HD
ATOM     17  H   UNL     1      -4.032   7.924 -11.697  0.00  0.00    +0.000 HD
ENDBRANCH   8  14
ENDBRANCH   4   7
ENDBRANCH   1   4
BRANCH   1  18
ATOM     18  C   UNL     1      -1.132   9.671 -12.258  0.00  0.00    +0.000 C 
ATOM     19  C   UNL     1      -0.085   9.141 -12.919  0.00  0.00    +0.000 C 
ATOM     20  H   UNL     1       0.781   8.841 -12.331  0.00  0.00    +0.000 HD
BRANCH  18  21
ATOM     21  C   UNL     1      -2.365  10.095 -13.015  0.00  0.00    +0.000 C 
ATOM     22  H   UNL     1      -3.247   9.987 -12.374  0.00  0.00    +0.000 HD
ATOM     23  H   UNL     1      -2.509   9.468 -13.899  0.00  0.00    +0.000 HD
ATOM     24  H   UNL     1      -2.354  11.125 -13.373  0.00  0.00    +0.000 HD
ENDBRANCH  18  21
BRANCH  19  25
ATOM     25  C   UNL     1       0.045   8.894 -14.389  0.00  0.00    +0.000 C 
ATOM     26  H   UNL     1      -0.913   9.140 -14.865  0.00  0.00    +0.000 HD
ATOM     27  H   UNL     1       0.263   7.850 -14.627  0.00  0.00    +0.000 HD
BRANCH  25  28
ATOM     28  O   UNL     1       1.055   9.751 -14.904  0.00  0.00    +0.000 OA
BRANCH  28  30
ATOM     29  O   UNL     1      -0.474  11.242 -15.786  0.00  0.00    +0.000 OA
ATOM     30  C   UNL     1       0.632  10.979 -15.333  0.00  0.00    +0.000 C 
BRANCH  30  31
ATOM     31  C   UNL     1       1.733  11.983 -15.171  0.00  0.00    +0.000 C 
ATOM     32  H   UNL     1       2.372  11.700 -14.332  0.00  0.00    +0.000 HD
ATOM     33  H   UNL     1       1.307  12.977 -15.014  0.00  0.00    +0.000 HD
ATOM     34  H   UNL     1       2.341  12.005 -16.080  0.00  0.00    +0.000 HD
ENDBRANCH  30  31
ENDBRANCH  28  30
ENDBRANCH  25  28
ENDBRANCH  19  25
ENDBRANCH   1  18
TORSDOF 10
ENDMDL
MODEL 3
REMARK VINA RESULT:    -5.017     16.308     17.961
REMARK INTER + INTRA:          -7.903
REMARK INTER:                  -7.396
REMARK INTRA:                  -0.507
REMARK UNBOUND:                -0.540
REMARK  Name = 1549026
REMARK  10 active torsions:
REMARK  status: ('A' for Active; 'I' for Inactive)
REMARK    1  A    between atoms: O_1  and  C_10
REMARK    2  A    between atoms: O_1  and  C_13
REMARK    3  A    between atoms: C_3  and  C_4
REMARK    4  A    between atoms: C_3  and  C_5
REMARK    5  A    between atoms: C_4  and  C_6
REMARK    6  A    between atoms: C_5  and  C_8
REMARK    7  A    between atoms: C_7  and  C_10
REMARK    8  A    between atoms: C_9  and  C_11
REMARK    9  A    between atoms: C_9  and  C_12
REMARK   10  A    between atoms: C_13  and  C_14
REMARK                            x       y       z     vdW  Elec       q    Type
REMARK                         _______ _______ _______ _____ _____    ______ ____
ROOT
ATOM      1  C   UNL     1      -4.652   6.751 -10.929  0.00  0.00    +0.000 C 
ATOM      2  H   UNL     1      -4.852   7.776 -11.266  0.00  0.00    +0.000 HD
ATOM      3  H   UNL     1      -4.518   6.153 -11.840  0.00  0.00    +0.000 HD
ENDROOT
BRANCH   1   4
ATOM      4  C   UNL     1      -3.346   6.735 -10.122  0.00  0.00    +0.000 C 
ATOM      5  H   UNL     1      -2.899   5.739 -10.164  0.00  0.00    +0.000 HD
ATOM      6  H   UNL     1      -3.597   6.901  -9.067  0.00  0.00    +0.000 HD
BRANCH   4   7
ATOM      7  C   UNL     1      -2.395   7.822 -10.540  0.00  0.00    +0.000 C 
ATOM      8  C   UNL     1      -2.209   9.027  -9.969  0.00  0.00    +0.000 C 
ATOM      9  H   UNL     1      -1.811   7.585 -11.428  0.00  0.00    +0.000 HD
BRANCH   8  10
ATOM     10  C   UNL     1      -1.204   9.992 -10.542  0.00  0.00    +0.000 C 
ATOM     11  H   UNL     1      -0.200   9.555 -10.511  0.00  0.00    +0.000 HD
ATOM     12  H   UNL     1      -1.420  10.252 -11.583  0.00  0.00    +0.000 HD
ATOM     13  H   UNL     1      -1.197  10.920  -9.962  0.00  0.00    +0.000 HD
ENDBRANCH   8  10
BRANCH   8  14
ATOM     14  C   UNL     1      -2.925   9.531  -8.749  0.00  0.00    +0.000 C 
ATOM     15  H   UNL     1      -3.447   8.706  -8.253  0.00  0.00    +0.000 HD
ATOM     16  H   UNL     1      -2.268   9.985  -8.005  0.00  0.00    +0.000 HD
ATOM     17  H   UNL     1      -3.668  10.283  -9.036  0.00  0.00    +0.000 HD
ENDBRANCH   8  14
ENDBRANCH   4   7
ENDBRANCH   1   4
BRANCH   1  18
ATOM     18  C   UNL     1      -5.853   6.248 -10.156  0.00  0.00    +0.000 C 
ATOM     19  C   UNL     1      -5.850   5.942  -8.844  0.00  0.00    +0.000 C 
ATOM     20  H   UNL     1      -4.923   6.098  -8.294  0.00  0.00    +0.000 HD
BRANCH  18  21
ATOM     21  C   UNL     1      -7.109   6.065 -10.970  0.00  0.00    +0.000 C 
ATOM     22  H   UNL     1      -7.988   6.220 -10.335  0.00  0.00    +0.000 HD
ATOM     23  H   UNL     1      -7.160   5.053 -11.378  0.00  0.00    +0.000 HD
ATOM     24  H   UNL     1      -7.208   6.740 -11.821  0.00  0.00    +0.000 HD
ENDBRANCH  18  21
BRANCH  19  25
ATOM     25  C   UNL     1      -6.982   5.412  -8.021  0.00  0.00    +0.000 C 
ATOM     26  H   UNL     1      -6.602   4.583  -7.409  0.00  0.00    +0.000 HD
ATOM     27  H   UNL     1      -7.799   5.013  -8.628  0.00  0.00    +0.000 HD
BRANCH  25  28
ATOM     28  O   UNL     1      -7.445   6.449  -7.167  0.00  0.00    +0.000 OA
BRANCH  28  30
ATOM     29  O   UNL     1      -8.612   6.773  -5.199  0.00  0.00    +0.000 OA
ATOM     30  C   UNL     1      -8.163   6.045  -6.075  0.00  0.00    +0.000 C 
BRANCH  30  31
ATOM     31  C   UNL     1      -8.330   4.556  -6.097  0.00  0.00    +0.000 C 
ATOM     32  H   UNL     1      -8.243   4.158  -5.083  0.00  0.00    +0.000 HD
ATOM     33  H   UNL     1      -7.579   4.109  -6.752  0.00  0.00    +0.000 HD
ATOM     34  H   UNL     1      -9.323   4.307  -6.484  0.00  0.00    +0.000 HD
ENDBRANCH  30  31
ENDBRANCH  28  30
ENDBRANCH  25  28
ENDBRANCH  19  25
ENDBRANCH   1  18
TORSDOF 10
ENDMDL
MODEL 4
REMARK VINA RESULT:    -4.881     17.223     18.960
REMARK INTER + INTRA:          -7.703
REMARK INTER:                  -7.201
REMARK INTRA:                  -0.501
REMARK UNBOUND:                -0.540
REMARK  Name = 1549026
REMARK  10 active torsions:
REMARK  status: ('A' for Active; 'I' for Inactive)
REMARK    1  A    between atoms: O_1  and  C_10
REMARK    2  A    between atoms: O_1  and  C_13
REMARK    3  A    between atoms: C_3  and  C_4
REMARK    4  A    between atoms: C_3  and  C_5
REMARK    5  A    between atoms: C_4  and  C_6
REMARK    6  A    between atoms: C_5  and  C_8
REMARK    7  A    between atoms: C_7  and  C_10
REMARK    8  A    between atoms: C_9  and  C_11
REMARK    9  A    between atoms: C_9  and  C_12
REMARK   10  A    between atoms: C_13  and  C_14
REMARK                            x       y       z     vdW  Elec       q    Type
REMARK                         _______ _______ _______ _____ _____    ______ ____
ROOT
ATOM      1  C   UNL     1      -0.316   8.119 -12.432  0.00  0.00    +0.000 C 
ATOM      2  H   UNL     1      -0.101   8.554 -11.448  0.00  0.00    +0.000 HD
ATOM      3  H   UNL     1       0.521   7.444 -12.655  0.00  0.00    +0.000 HD
ENDROOT
BRANCH   1   4
ATOM      4  C   UNL     1      -1.611   7.299 -12.344  0.00  0.00    +0.000 C 
ATOM      5  H   UNL     1      -1.509   6.384 -12.932  0.00  0.00    +0.000 HD
ATOM      6  H   UNL     1      -2.410   7.873 -12.830  0.00  0.00    +0.000 HD
BRANCH   4   7
ATOM      7  C   UNL     1      -2.037   7.039 -10.926  0.00  0.00    +0.000 C 
ATOM      8  C   UNL     1      -3.285   6.863 -10.453  0.00  0.00    +0.000 C 
ATOM      9  H   UNL     1      -1.215   7.015 -10.212  0.00  0.00    +0.000 HD
BRANCH   8  10
ATOM     10  C   UNL     1      -3.513   6.619  -8.984  0.00  0.00    +0.000 C 
ATOM     11  H   UNL     1      -3.210   7.496  -8.403  0.00  0.00    +0.000 HD
ATOM     12  H   UNL     1      -4.563   6.413  -8.752  0.00  0.00    +0.000 HD
ATOM     13  H   UNL     1      -2.924   5.759  -8.648  0.00  0.00    +0.000 HD
ENDBRANCH   8  10
BRANCH   8  14
ATOM     14  C   UNL     1      -4.538   6.871 -11.280  0.00  0.00    +0.000 C 
ATOM     15  H   UNL     1      -5.248   6.134 -10.890  0.00  0.00    +0.000 HD
ATOM     16  H   UNL     1      -5.053   7.832 -11.296  0.00  0.00    +0.000 HD
ATOM     17  H   UNL     1      -4.304   6.604 -12.317  0.00  0.00    +0.000 HD
ENDBRANCH   8  14
ENDBRANCH   4   7
ENDBRANCH   1   4
BRANCH   1  18
ATOM     18  C   UNL     1      -0.368   9.232 -13.457  0.00  0.00    +0.000 C 
ATOM     19  C   UNL     1       0.434   9.323 -14.535  0.00  0.00    +0.000 C 
ATOM     20  H   UNL     1       1.151   8.519 -14.697  0.00  0.00    +0.000 HD
BRANCH  18  21
ATOM     21  C   UNL     1      -1.389  10.307 -13.185  0.00  0.00    +0.000 C 
ATOM     22  H   UNL     1      -1.143  11.206 -13.762  0.00  0.00    +0.000 HD
ATOM     23  H   UNL     1      -1.393  10.575 -12.125  0.00  0.00    +0.000 HD
ATOM     24  H   UNL     1      -2.416  10.040 -13.433  0.00  0.00    +0.000 HD
ENDBRANCH  18  21
BRANCH  19  25
ATOM     25  C   UNL     1       0.466  10.403 -15.571  0.00  0.00    +0.000 C 
ATOM     26  H   UNL     1      -0.423  11.033 -15.437  0.00  0.00    +0.000 HD
ATOM     27  H   UNL     1       0.433  10.014 -16.592  0.00  0.00    +0.000 HD
BRANCH  25  28
ATOM     28  O   UNL     1       1.631  11.191 -15.368  0.00  0.00    +0.000 OA
BRANCH  28  30
ATOM     29  O   UNL     1       0.328  12.986 -14.721  0.00  0.00    +0.000 OA
ATOM     30  C   UNL     1       1.418  12.462 -14.911  0.00  0.00    +0.000 C 
BRANCH  30  31
ATOM     31  C   UNL     1       2.731  13.144 -14.668  0.00  0.00    +0.000 C 
ATOM     32  H   UNL     1       2.638  13.840 -13.832  0.00  0.00    +0.000 HD
ATOM     33  H   UNL     1       3.047  13.668 -15.573  0.00  0.00    +0.000 HD
ATOM     34  H   UNL     1       3.487  12.395 -14.416  0.00  0.00    +0.000 HD
ENDBRANCH  30  31
ENDBRANCH  28  30
ENDBRANCH  25  28
ENDBRANCH  19  25
ENDBRANCH   1  18
TORSDOF 10
ENDMDL
MODEL 5
REMARK VINA RESULT:    -4.800     17.101     19.084
REMARK INTER + INTRA:          -7.584
REMARK INTER:                  -7.074
REMARK INTRA:                  -0.510
REMARK UNBOUND:                -0.540
REMARK  Name = 1549026
REMARK  10 active torsions:
REMARK  status: ('A' for Active; 'I' for Inactive)
REMARK    1  A    between atoms: O_1  and  C_10
REMARK    2  A    between atoms: O_1  and  C_13
REMARK    3  A    between atoms: C_3  and  C_4
REMARK    4  A    between atoms: C_3  and  C_5
REMARK    5  A    between atoms: C_4  and  C_6
REMARK    6  A    between atoms: C_5  and  C_8
REMARK    7  A    between atoms: C_7  and  C_10
REMARK    8  A    between atoms: C_9  and  C_11
REMARK    9  A    between atoms: C_9  and  C_12
REMARK   10  A    between atoms: C_13  and  C_14
REMARK                            x       y       z     vdW  Elec       q    Type
REMARK                         _______ _______ _______ _____ _____    ______ ____
ROOT
ATOM      1  C   UNL     1      -0.990   7.584 -12.287  0.00  0.00    +0.000 C 
ATOM      2  H   UNL     1      -0.622   7.530 -11.255  0.00  0.00    +0.000 HD
ATOM      3  H   UNL     1      -0.558   6.719 -12.808  0.00  0.00    +0.000 HD
ENDROOT
BRANCH   1   4
ATOM      4  C   UNL     1      -2.519   7.451 -12.281  0.00  0.00    +0.000 C 
ATOM      5  H   UNL     1      -2.852   6.972 -13.205  0.00  0.00    +0.000 HD
ATOM      6  H   UNL     1      -2.948   8.461 -12.302  0.00  0.00    +0.000 HD
BRANCH   4   7
ATOM      7  C   UNL     1      -3.036   6.764 -11.047  0.00  0.00    +0.000 C 
ATOM      8  C   UNL     1      -3.141   7.263  -9.801  0.00  0.00    +0.000 C 
ATOM      9  H   UNL     1      -3.337   5.729 -11.207  0.00  0.00    +0.000 HD
BRANCH   8  10
ATOM     10  C   UNL     1      -3.681   6.409  -8.684  0.00  0.00    +0.000 C 
ATOM     11  H   UNL     1      -2.935   5.668  -8.380  0.00  0.00    +0.000 HD
ATOM     12  H   UNL     1      -3.946   6.997  -7.799  0.00  0.00    +0.000 HD
ATOM     13  H   UNL     1      -4.582   5.881  -9.014  0.00  0.00    +0.000 HD
ENDBRANCH   8  10
BRANCH   8  14
ATOM     14  C   UNL     1      -2.770   8.658  -9.389  0.00  0.00    +0.000 C 
ATOM     15  H   UNL     1      -1.894   8.995  -9.954  0.00  0.00    +0.000 HD
ATOM     16  H   UNL     1      -3.558   9.395  -9.555  0.00  0.00    +0.000 HD
ATOM     17  H   UNL     1      -2.517   8.679  -8.323  0.00  0.00    +0.000 HD
ENDBRANCH   8  14
ENDBRANCH   4   7
ENDBRANCH   1   4
BRANCH   1  18
ATOM     18  C   UNL     1      -0.492   8.867 -12.918  0.00  0.00    +0.000 C 
ATOM     19  C   UNL     1       0.200   8.941 -14.071  0.00  0.00    +0.000 C 
ATOM     20  H   UNL     1       0.387   8.009 -14.604  0.00  0.00    +0.000 HD
BRANCH  18  21
ATOM     21  C   UNL     1      -0.794  10.123 -12.139  0.00  0.00    +0.000 C 
ATOM     22  H   UNL     1      -1.032  10.939 -12.830  0.00  0.00    +0.000 HD
ATOM     23  H   UNL     1       0.072  10.424 -11.543  0.00  0.00    +0.000 HD
ATOM     24  H   UNL     1      -1.628  10.042 -11.441  0.00  0.00    +0.000 HD
ENDBRANCH  18  21
BRANCH  19  25
ATOM     25  C   UNL     1       0.751  10.161 -14.737  0.00  0.00    +0.000 C 
ATOM     26  H   UNL     1       1.846  10.099 -14.716  0.00  0.00    +0.000 HD
ATOM     27  H   UNL     1       0.473  11.087 -14.227  0.00  0.00    +0.000 HD
BRANCH  25  28
ATOM     28  O   UNL     1       0.311  10.177 -16.088  0.00  0.00    +0.000 OA
BRANCH  28  30
ATOM     29  O   UNL     1       1.629   8.935 -17.524  0.00  0.00    +0.000 OA
ATOM     30  C   UNL     1       1.284  10.003 -17.034  0.00  0.00    +0.000 C 
BRANCH  30  31
ATOM     31  C   UNL     1       1.886  11.326 -17.397  0.00  0.00    +0.000 C 
ATOM     32  H   UNL     1       2.962  11.216 -17.547  0.00  0.00    +0.000 HD
ATOM     33  H   UNL     1       1.679  12.055 -16.609  0.00  0.00    +0.000 HD
ATOM     34  H   UNL     1       1.439  11.684 -18.329  0.00  0.00    +0.000 HD
ENDBRANCH  30  31
ENDBRANCH  28  30
ENDBRANCH  25  28
ENDBRANCH  19  25
ENDBRANCH   1  18
TORSDOF 10
ENDMDL
MODEL 6
REMARK VINA RESULT:    -4.746      2.950      6.062
REMARK INTER + INTRA:          -7.505
REMARK INTER:                  -6.679
REMARK INTRA:                  -0.825
REMARK UNBOUND:                -0.540
REMARK  Name = 1549026
REMARK  10 active torsions:
REMARK  status: ('A' for Active; 'I' for Inactive)
REMARK    1  A    between atoms: O_1  and  C_10
REMARK    2  A    between atoms: O_1  and  C_13
REMARK    3  A    between atoms: C_3  and  C_4
REMARK    4  A    between atoms: C_3  and  C_5
REMARK    5  A    between atoms: C_4  and  C_6
REMARK    6  A    between atoms: C_5  and  C_8
REMARK    7  A    between atoms: C_7  and  C_10
REMARK    8  A    between atoms: C_9  and  C_11
REMARK    9  A    between atoms: C_9  and  C_12
REMARK   10  A    between atoms: C_13  and  C_14
REMARK                            x       y       z     vdW  Elec       q    Type
REMARK                         _______ _______ _______ _____ _____    ______ ____
ROOT
ATOM      1  C   UNL     1       6.919   9.327   6.016  0.00  0.00    +0.000 C 
ATOM      2  H   UNL     1       6.325   9.981   5.367  0.00  0.00    +0.000 HD
ATOM      3  H   UNL     1       6.255   9.032   6.839  0.00  0.00    +0.000 HD
ENDROOT
BRANCH   1   4
ATOM      4  C   UNL     1       7.328   8.075   5.228  0.00  0.00    +0.000 C 
ATOM      5  H   UNL     1       7.233   7.192   5.863  0.00  0.00    +0.000 HD
ATOM      6  H   UNL     1       8.397   8.155   4.994  0.00  0.00    +0.000 HD
BRANCH   4   7
ATOM      7  C   UNL     1       6.586   7.943   3.926  0.00  0.00    +0.000 C 
ATOM      8  C   UNL     1       6.899   8.484   2.734  0.00  0.00    +0.000 C 
ATOM      9  H   UNL     1       5.677   7.347   3.991  0.00  0.00    +0.000 HD
BRANCH   8  10
ATOM     10  C   UNL     1       6.020   8.241   1.535  0.00  0.00    +0.000 C 
ATOM     11  H   UNL     1       6.633   8.119   0.636  0.00  0.00    +0.000 HD
ATOM     12  H   UNL     1       5.406   7.341   1.643  0.00  0.00    +0.000 HD
ATOM     13  H   UNL     1       5.344   9.088   1.384  0.00  0.00    +0.000 HD
ENDBRANCH   8  10
BRANCH   8  14
ATOM     14  C   UNL     1       8.103   9.337   2.455  0.00  0.00    +0.000 C 
ATOM     15  H   UNL     1       7.958   9.897   1.525  0.00  0.00    +0.000 HD
ATOM     16  H   UNL     1       8.320  10.068   3.235  0.00  0.00    +0.000 HD
ATOM     17  H   UNL     1       8.991   8.706   2.339  0.00  0.00    +0.000 HD
ENDBRANCH   8  14
ENDBRANCH   4   7
ENDBRANCH   1   4
BRANCH   1  18
ATOM     18  C   UNL     1       8.093  10.115   6.560  0.00  0.00    +0.000 C 
ATOM     19  C   UNL     1       9.181  10.465   5.848  0.00  0.00    +0.000 C 
ATOM     20  H   UNL     1       9.203  10.188   4.795  0.00  0.00    +0.000 HD
BRANCH  18  21
ATOM     21  C   UNL     1       7.998  10.481   8.020  0.00  0.00    +0.000 C 
ATOM     22  H   UNL     1       8.529  11.421   8.201  0.00  0.00    +0.000 HD
ATOM     23  H   UNL     1       8.456   9.707   8.642  0.00  0.00    +0.000 HD
ATOM     24  H   UNL     1       6.983  10.609   8.397  0.00  0.00    +0.000 HD
ENDBRANCH  18  21
BRANCH  19  25
ATOM     25  C   UNL     1      10.389  11.211   6.321  0.00  0.00    +0.000 C 
ATOM     26  H   UNL     1      11.281  10.669   5.981  0.00  0.00    +0.000 HD
ATOM     27  H   UNL     1      10.449  11.277   7.410  0.00  0.00    +0.000 HD
BRANCH  25  28
ATOM     28  O   UNL     1      10.379  12.506   5.736  0.00  0.00    +0.000 OA
BRANCH  28  30
ATOM     29  O   UNL     1       8.505  13.853   5.842  0.00  0.00    +0.000 OA
ATOM     30  C   UNL     1       9.543  13.417   6.321  0.00  0.00    +0.000 C 
BRANCH  30  31
ATOM     31  C   UNL     1      10.085  13.819   7.660  0.00  0.00    +0.000 C 
ATOM     32  H   UNL     1      10.008  14.902   7.780  0.00  0.00    +0.000 HD
ATOM     33  H   UNL     1      11.123  13.493   7.751  0.00  0.00    +0.000 HD
ATOM     34  H   UNL     1       9.497  13.339   8.448  0.00  0.00    +0.000 HD
ENDBRANCH  30  31
ENDBRANCH  28  30
ENDBRANCH  25  28
ENDBRANCH  19  25
ENDBRANCH   1  18
TORSDOF 10
ENDMDL
MODEL 7
REMARK VINA RESULT:    -4.722      1.557      2.051
REMARK INTER + INTRA:          -7.470
REMARK INTER:                  -7.110
REMARK INTRA:                  -0.359
REMARK UNBOUND:                -0.540
REMARK  Name = 1549026
REMARK  10 active torsions:
REMARK  status: ('A' for Active; 'I' for Inactive)
REMARK    1  A    between atoms: O_1  and  C_10
REMARK    2  A    between atoms: O_1  and  C_13
REMARK    3  A    between atoms: C_3  and  C_4
REMARK    4  A    between atoms: C_3  and  C_5
REMARK    5  A    between atoms: C_4  and  C_6
REMARK    6  A    between atoms: C_5  and  C_8
REMARK    7  A    between atoms: C_7  and  C_10
REMARK    8  A    between atoms: C_9  and  C_11
REMARK    9  A    between atoms: C_9  and  C_12
REMARK   10  A    between atoms: C_13  and  C_14
REMARK                            x       y       z     vdW  Elec       q    Type
REMARK                         _______ _______ _______ _____ _____    ______ ____
ROOT
ATOM      1  C   UNL     1       7.909   9.001   5.102  0.00  0.00    +0.000 C 
ATOM      2  H   UNL     1       8.427   9.810   4.571  0.00  0.00    +0.000 HD
ATOM      3  H   UNL     1       8.693   8.314   5.446  0.00  0.00    +0.000 HD
ENDROOT
BRANCH   1   4
ATOM      4  C   UNL     1       7.184   9.586   6.321  0.00  0.00    +0.000 C 
ATOM      5  H   UNL     1       7.035   8.806   7.071  0.00  0.00    +0.000 HD
ATOM      6  H   UNL     1       6.177   9.887   6.005  0.00  0.00    +0.000 HD
BRANCH   4   7
ATOM      7  C   UNL     1       7.870  10.806   6.872  0.00  0.00    +0.000 C 
ATOM      8  C   UNL     1       8.410  10.973   8.094  0.00  0.00    +0.000 C 
ATOM      9  H   UNL     1       7.902  11.648   6.183  0.00  0.00    +0.000 HD
BRANCH   8  10
ATOM     10  C   UNL     1       9.053  12.283   8.467  0.00  0.00    +0.000 C 
ATOM     11  H   UNL     1      10.033  12.108   8.922  0.00  0.00    +0.000 HD
ATOM     12  H   UNL     1       9.202  12.938   7.602  0.00  0.00    +0.000 HD
ATOM     13  H   UNL     1       8.427  12.822   9.186  0.00  0.00    +0.000 HD
ENDBRANCH   8  10
BRANCH   8  14
ATOM     14  C   UNL     1       8.453   9.933   9.176  0.00  0.00    +0.000 C 
ATOM     15  H   UNL     1       8.792  10.384  10.115  0.00  0.00    +0.000 HD
ATOM     16  H   UNL     1       7.489   9.463   9.379  0.00  0.00    +0.000 HD
ATOM     17  H   UNL     1       9.157   9.139   8.904  0.00  0.00    +0.000 HD
ENDBRANCH   8  14
ENDBRANCH   4   7
ENDBRANCH   1   4
BRANCH   1  18
ATOM     18  C   UNL     1       6.991   8.289   4.130  0.00  0.00    +0.000 C 
ATOM     19  C   UNL     1       6.774   8.670   2.857  0.00  0.00    +0.000 C 
ATOM     20  H   UNL     1       7.324   9.536   2.490  0.00  0.00    +0.000 HD
BRANCH  18  21
ATOM     21  C   UNL     1       6.269   7.091   4.692  0.00  0.00    +0.000 C 
ATOM     22  H   UNL     1       6.906   6.585   5.426  0.00  0.00    +0.000 HD
ATOM     23  H   UNL     1       6.031   6.377   3.899  0.00  0.00    +0.000 HD
ATOM     24  H   UNL     1       5.325   7.315   5.190  0.00  0.00    +0.000 HD
ENDBRANCH  18  21
BRANCH  19  25
ATOM     25  C   UNL     1       5.862   8.041   1.851  0.00  0.00    +0.000 C 
ATOM     26  H   UNL     1       4.932   7.757   2.360  0.00  0.00    +0.000 HD
ATOM     27  H   UNL     1       6.278   7.129   1.412  0.00  0.00    +0.000 HD
BRANCH  25  28
ATOM     28  O   UNL     1       5.569   8.999   0.843  0.00  0.00    +0.000 OA
BRANCH  28  30
ATOM     29  O   UNL     1       3.517   8.568  -0.127  0.00  0.00    +0.000 OA
ATOM     30  C   UNL     1       4.242   9.228   0.607  0.00  0.00    +0.000 C 
BRANCH  30  31
ATOM     31  C   UNL     1       3.783  10.424   1.385  0.00  0.00    +0.000 C 
ATOM     32  H   UNL     1       4.060  10.310   2.435  0.00  0.00    +0.000 HD
ATOM     33  H   UNL     1       2.702  10.540   1.281  0.00  0.00    +0.000 HD
ATOM     34  H   UNL     1       4.270  11.321   0.991  0.00  0.00    +0.000 HD
ENDBRANCH  30  31
ENDBRANCH  28  30
ENDBRANCH  25  28
ENDBRANCH  19  25
ENDBRANCH   1  18
TORSDOF 10
ENDMDL
MODEL 8
REMARK VINA RESULT:    -4.683      1.877      3.636
REMARK INTER + INTRA:          -7.413
REMARK INTER:                  -6.560
REMARK INTRA:                  -0.853
REMARK UNBOUND:                -0.540
REMARK  Name = 1549026
REMARK  10 active torsions:
REMARK  status: ('A' for Active; 'I' for Inactive)
REMARK    1  A    between atoms: O_1  and  C_10
REMARK    2  A    between atoms: O_1  and  C_13
REMARK    3  A    between atoms: C_3  and  C_4
REMARK    4  A    between atoms: C_3  and  C_5
REMARK    5  A    between atoms: C_4  and  C_6
REMARK    6  A    between atoms: C_5  and  C_8
REMARK    7  A    between atoms: C_7  and  C_10
REMARK    8  A    between atoms: C_9  and  C_11
REMARK    9  A    between atoms: C_9  and  C_12
REMARK   10  A    between atoms: C_13  and  C_14
REMARK                            x       y       z     vdW  Elec       q    Type
REMARK                         _______ _______ _______ _____ _____    ______ ____
ROOT
ATOM      1  C   UNL     1       7.697  11.234   7.842  0.00  0.00    +0.000 C 
ATOM      2  H   UNL     1       7.438  11.020   8.886  0.00  0.00    +0.000 HD
ATOM      3  H   UNL     1       6.840  11.775   7.421  0.00  0.00    +0.000 HD
ENDROOT
BRANCH   1   4
ATOM      4  C   UNL     1       8.931  12.146   7.808  0.00  0.00    +0.000 C 
ATOM      5  H   UNL     1       9.819  11.576   8.092  0.00  0.00    +0.000 HD
ATOM      6  H   UNL     1       8.810  12.910   8.587  0.00  0.00    +0.000 HD
BRANCH   4   7
ATOM      7  C   UNL     1       9.088  12.859   6.493  0.00  0.00    +0.000 C 
ATOM      8  C   UNL     1       9.901  12.540   5.468  0.00  0.00    +0.000 C 
ATOM      9  H   UNL     1       8.471  13.750   6.394  0.00  0.00    +0.000 HD
BRANCH   8  10
ATOM     10  C   UNL     1       9.922  13.389   4.224  0.00  0.00    +0.000 C 
ATOM     11  H   UNL     1       9.366  12.895   3.420  0.00  0.00    +0.000 HD
ATOM     12  H   UNL     1       9.471  14.375   4.382  0.00  0.00    +0.000 HD
ATOM     13  H   UNL     1      10.953  13.545   3.890  0.00  0.00    +0.000 HD
ENDBRANCH   8  10
BRANCH   8  14
ATOM     14  C   UNL     1      10.825  11.358   5.426  0.00  0.00    +0.000 C 
ATOM     15  H   UNL     1      11.541  11.413   6.253  0.00  0.00    +0.000 HD
ATOM     16  H   UNL     1      10.319  10.395   5.508  0.00  0.00    +0.000 HD
ATOM     17  H   UNL     1      11.388  11.356   4.486  0.00  0.00    +0.000 HD
ENDBRANCH   8  14
ENDBRANCH   4   7
ENDBRANCH   1   4
BRANCH   1  18
ATOM     18  C   UNL     1       7.889   9.922   7.108  0.00  0.00    +0.000 C 
ATOM     19  C   UNL     1       7.206   9.548   6.009  0.00  0.00    +0.000 C 
ATOM     20  H   UNL     1       6.486  10.256   5.600  0.00  0.00    +0.000 HD
BRANCH  18  21
ATOM     21  C   UNL     1       8.908   8.992   7.716  0.00  0.00    +0.000 C 
ATOM     22  H   UNL     1       8.427   8.048   7.996  0.00  0.00    +0.000 HD
ATOM     23  H   UNL     1       9.343   9.432   8.617  0.00  0.00    +0.000 HD
ATOM     24  H   UNL     1       9.747   8.741   7.066  0.00  0.00    +0.000 HD
ENDBRANCH  18  21
BRANCH  19  25
ATOM     25  C   UNL     1       7.315   8.263   5.251  0.00  0.00    +0.000 C 
ATOM     26  H   UNL     1       6.428   7.657   5.474  0.00  0.00    +0.000 HD
ATOM     27  H   UNL     1       8.188   7.671   5.541  0.00  0.00    +0.000 HD
BRANCH  25  28
ATOM     28  O   UNL     1       7.343   8.558   3.861  0.00  0.00    +0.000 OA
BRANCH  28  30
ATOM     29  O   UNL     1       5.773   8.695   2.171  0.00  0.00    +0.000 OA
ATOM     30  C   UNL     1       6.262   8.129   3.140  0.00  0.00    +0.000 C 
BRANCH  30  31
ATOM     31  C   UNL     1       5.747   6.843   3.710  0.00  0.00    +0.000 C 
ATOM     32  H   UNL     1       6.239   5.998   3.224  0.00  0.00    +0.000 HD
ATOM     33  H   UNL     1       4.664   6.787   3.577  0.00  0.00    +0.000 HD
ATOM     34  H   UNL     1       5.968   6.805   4.781  0.00  0.00    +0.000 HD
ENDBRANCH  30  31
ENDBRANCH  28  30
ENDBRANCH  25  28
ENDBRANCH  19  25
ENDBRANCH   1  18
TORSDOF 10
ENDMDL
MODEL 9
REMARK VINA RESULT:    -4.654     16.368     18.771
REMARK INTER + INTRA:          -7.371
REMARK INTER:                  -6.996
REMARK INTRA:                  -0.374
REMARK UNBOUND:                -0.540
REMARK  Name = 1549026
REMARK  10 active torsions:
REMARK  status: ('A' for Active; 'I' for Inactive)
REMARK    1  A    between atoms: O_1  and  C_10
REMARK    2  A    between atoms: O_1  and  C_13
REMARK    3  A    between atoms: C_3  and  C_4
REMARK    4  A    between atoms: C_3  and  C_5
REMARK    5  A    between atoms: C_4  and  C_6
REMARK    6  A    between atoms: C_5  and  C_8
REMARK    7  A    between atoms: C_7  and  C_10
REMARK    8  A    between atoms: C_9  and  C_11
REMARK    9  A    between atoms: C_9  and  C_12
REMARK   10  A    between atoms: C_13  and  C_14
REMARK                            x       y       z     vdW  Elec       q    Type
REMARK                         _______ _______ _______ _____ _____    ______ ____
ROOT
ATOM      1  C   UNL     1       0.668   9.442 -14.383  0.00  0.00    +0.000 C 
ATOM      2  H   UNL     1       0.908   8.766 -15.213  0.00  0.00    +0.000 HD
ATOM      3  H   UNL     1       1.529   9.403 -13.702  0.00  0.00    +0.000 HD
ENDROOT
BRANCH   1   4
ATOM      4  C   UNL     1       0.523  10.870 -14.925  0.00  0.00    +0.000 C 
ATOM      5  H   UNL     1       0.492  11.579 -14.094  0.00  0.00    +0.000 HD
ATOM      6  H   UNL     1      -0.455  10.950 -15.416  0.00  0.00    +0.000 HD
BRANCH   4   7
ATOM      7  C   UNL     1       1.573  11.211 -15.946  0.00  0.00    +0.000 C 
ATOM      8  C   UNL     1       2.531  12.154 -15.869  0.00  0.00    +0.000 C 
ATOM      9  H   UNL     1       1.515  10.619 -16.858  0.00  0.00    +0.000 HD
BRANCH   8  10
ATOM     10  C   UNL     1       3.496  12.351 -17.009  0.00  0.00    +0.000 C 
ATOM     11  H   UNL     1       2.949  12.474 -17.950  0.00  0.00    +0.000 HD
ATOM     12  H   UNL     1       4.127  13.236 -16.875  0.00  0.00    +0.000 HD
ATOM     13  H   UNL     1       4.156  11.483 -17.101  0.00  0.00    +0.000 HD
ENDBRANCH   8  10
BRANCH   8  14
ATOM     14  C   UNL     1       2.761  13.068 -14.700  0.00  0.00    +0.000 C 
ATOM     15  H   UNL     1       2.477  12.563 -13.769  0.00  0.00    +0.000 HD
ATOM     16  H   UNL     1       3.797  13.389 -14.584  0.00  0.00    +0.000 HD
ATOM     17  H   UNL     1       2.145  13.968 -14.802  0.00  0.00    +0.000 HD
ENDBRANCH   8  14
ENDBRANCH   4   7
ENDBRANCH   1   4
BRANCH   1  18
ATOM     18  C   UNL     1      -0.570   8.929 -13.677  0.00  0.00    +0.000 C 
ATOM     19  C   UNL     1      -0.981   9.326 -12.458  0.00  0.00    +0.000 C 
ATOM     20  H   UNL     1      -0.396  10.096 -11.956  0.00  0.00    +0.000 HD
BRANCH  18  21
ATOM     21  C   UNL     1      -1.344   7.875 -14.427  0.00  0.00    +0.000 C 
ATOM     22  H   UNL     1      -1.059   7.889 -15.485  0.00  0.00    +0.000 HD
ATOM     23  H   UNL     1      -2.418   8.067 -14.363  0.00  0.00    +0.000 HD
ATOM     24  H   UNL     1      -1.198   6.855 -14.071  0.00  0.00    +0.000 HD
ENDBRANCH  18  21
BRANCH  19  25
ATOM     25  C   UNL     1      -2.168   8.845 -11.685  0.00  0.00    +0.000 C 
ATOM     26  H   UNL     1      -2.321   7.783 -11.916  0.00  0.00    +0.000 HD
ATOM     27  H   UNL     1      -3.091   9.367 -11.954  0.00  0.00    +0.000 HD
BRANCH  25  28
ATOM     28  O   UNL     1      -1.894   8.987 -10.298  0.00  0.00    +0.000 OA
BRANCH  28  30
ATOM     29  O   UNL     1      -3.028   8.530  -8.337  0.00  0.00    +0.000 OA
ATOM     30  C   UNL     1      -2.652   8.216  -9.459  0.00  0.00    +0.000 C 
BRANCH  30  31
ATOM     31  C   UNL     1      -2.966   6.906 -10.115  0.00  0.00    +0.000 C 
ATOM     32  H   UNL     1      -3.952   6.953 -10.583  0.00  0.00    +0.000 HD
ATOM     33  H   UNL     1      -2.929   6.104  -9.374  0.00  0.00    +0.000 HD
ATOM     34  H   UNL     1      -2.222   6.700 -10.890  0.00  0.00    +0.000 HD
ENDBRANCH  30  31
ENDBRANCH  28  30
ENDBRANCH  25  28
ENDBRANCH  19  25
ENDBRANCH   1  18
TORSDOF 10
ENDMDL
MODEL 10
REMARK VINA RESULT:    -4.537      3.473      6.556
REMARK INTER + INTRA:          -7.198
REMARK INTER:                  -6.659
REMARK INTRA:                  -0.540
REMARK UNBOUND:                -0.540
REMARK  Name = 1549026
REMARK  10 active torsions:
REMARK  status: ('A' for Active; 'I' for Inactive)
REMARK    1  A    between atoms: O_1  and  C_10
REMARK    2  A    between atoms: O_1  and  C_13
REMARK    3  A    between atoms: C_3  and  C_4
REMARK    4  A    between atoms: C_3  and  C_5
REMARK    5  A    between atoms: C_4  and  C_6
REMARK    6  A    between atoms: C_5  and  C_8
REMARK    7  A    between atoms: C_7  and  C_10
REMARK    8  A    between atoms: C_9  and  C_11
REMARK    9  A    between atoms: C_9  and  C_12
REMARK   10  A    between atoms: C_13  and  C_14
REMARK                            x       y       z     vdW  Elec       q    Type
REMARK                         _______ _______ _______ _____ _____    ______ ____
ROOT
ATOM      1  C   UNL     1       6.975   9.576   6.272  0.00  0.00    +0.000 C 
ATOM      2  H   UNL     1       6.454  10.275   5.606  0.00  0.00    +0.000 HD
ATOM      3  H   UNL     1       6.233   9.252   7.013  0.00  0.00    +0.000 HD
ENDROOT
BRANCH   1   4
ATOM      4  C   UNL     1       7.434   8.358   5.458  0.00  0.00    +0.000 C 
ATOM      5  H   UNL     1       6.864   7.476   5.760  0.00  0.00    +0.000 HD
ATOM      6  H   UNL     1       8.476   8.142   5.728  0.00  0.00    +0.000 HD
BRANCH   4   7
ATOM      7  C   UNL     1       7.391   8.603   3.975  0.00  0.00    +0.000 C 
ATOM      8  C   UNL     1       6.679   7.941   3.044  0.00  0.00    +0.000 C 
ATOM      9  H   UNL     1       8.041   9.410   3.638  0.00  0.00    +0.000 HD
BRANCH   8  10
ATOM     10  C   UNL     1       6.774   8.334   1.593  0.00  0.00    +0.000 C 
ATOM     11  H   UNL     1       5.793   8.253   1.114  0.00  0.00    +0.000 HD
ATOM     12  H   UNL     1       7.125   9.363   1.460  0.00  0.00    +0.000 HD
ATOM     13  H   UNL     1       7.473   7.675   1.068  0.00  0.00    +0.000 HD
ENDBRANCH   8  10
BRANCH   8  14
ATOM     14  C   UNL     1       5.738   6.802   3.316  0.00  0.00    +0.000 C 
ATOM     15  H   UNL     1       4.731   7.058   2.972  0.00  0.00    +0.000 HD
ATOM     16  H   UNL     1       6.016   5.870   2.821  0.00  0.00    +0.000 HD
ATOM     17  H   UNL     1       5.692   6.604   4.392  0.00  0.00    +0.000 HD
ENDBRANCH   8  14
ENDBRANCH   4   7
ENDBRANCH   1   4
BRANCH   1  18
ATOM     18  C   UNL     1       8.106  10.309   6.962  0.00  0.00    +0.000 C 
ATOM     19  C   UNL     1       8.496  11.566   6.678  0.00  0.00    +0.000 C 
ATOM     20  H   UNL     1       7.934  12.106   5.916  0.00  0.00    +0.000 HD
BRANCH  18  21
ATOM     21  C   UNL     1       8.836   9.514   8.015  0.00  0.00    +0.000 C 
ATOM     22  H   UNL     1       8.810   8.449   7.759  0.00  0.00    +0.000 HD
ATOM     23  H   UNL     1       8.361   9.640   8.992  0.00  0.00    +0.000 HD
ATOM     24  H   UNL     1       9.884   9.784   8.152  0.00  0.00    +0.000 HD
ENDBRANCH  18  21
BRANCH  19  25
ATOM     25  C   UNL     1       9.618  12.343   7.290  0.00  0.00    +0.000 C 
ATOM     26  H   UNL     1      10.178  11.672   7.954  0.00  0.00    +0.000 HD
ATOM     27  H   UNL     1       9.272  13.182   7.900  0.00  0.00    +0.000 HD
BRANCH  25  28
ATOM     28  O   UNL     1      10.476  12.794   6.251  0.00  0.00    +0.000 OA
BRANCH  28  30
ATOM     29  O   UNL     1      12.615  12.189   6.883  0.00  0.00    +0.000 OA
ATOM     30  C   UNL     1      11.659  12.120   6.121  0.00  0.00    +0.000 C 
BRANCH  30  31
ATOM     31  C   UNL     1      11.627  11.265   4.890  0.00  0.00    +0.000 C 
ATOM     32  H   UNL     1      10.921  10.443   5.028  0.00  0.00    +0.000 HD
ATOM     33  H   UNL     1      12.628  10.883   4.679  0.00  0.00    +0.000 HD
ATOM     34  H   UNL     1      11.297  11.868   4.039  0.00  0.00    +0.000 HD
ENDBRANCH  30  31
ENDBRANCH  28  30
ENDBRANCH  25  28
ENDBRANCH  19  25
ENDBRANCH   1  18
TORSDOF 10
ENDMDL
