MODEL 1
REMARK VINA RESULT:    -4.762      0.000      0.000
REMARK INTER + INTRA:          -5.359
REMARK INTER:                  -5.314
REMARK INTRA:                  -0.045
REMARK UNBOUND:                -0.041
REMARK  Name = 460
REMARK  3 active torsions:
REMARK  status: ('A' for Active; 'I' for Inactive)
REMARK    1  A    between atoms: O_1  and  C_3
REMARK    2  A    between atoms: O_1  and  C_9
REMARK    3  A    between atoms: O_2  and  C_4
REMARK                            x       y       z     vdW  Elec       q    Type
REMARK                         _______ _______ _______ _____ _____    ______ ____
ROOT
ATOM      1  C   UNL     1      -1.652   8.087 -11.132  0.00  0.00    +0.000 A 
ATOM      2  C   UNL     1      -1.606   9.211 -10.307  0.00  0.00    +0.000 A 
ATOM      3  C   UNL     1      -2.441   6.993 -10.777  0.00  0.00    +0.000 A 
ATOM      4  C   UNL     1      -2.350   9.241  -9.128  0.00  0.00    +0.000 A 
ATOM      5  C   UNL     1      -3.185   7.024  -9.597  0.00  0.00    +0.000 A 
ATOM      6  C   UNL     1      -3.139   8.148  -8.772  0.00  0.00    +0.000 A 
ATOM      7  H   UNL     1      -2.525   6.088 -11.367  0.00  0.00    +0.000 HD
ATOM      8  H   UNL     1      -2.319  10.115  -8.481  0.00  0.00    +0.000 HD
ATOM      9  H   UNL     1      -3.801   6.173  -9.320  0.00  0.00    +0.000 HD
ATOM     10  H   UNL     1      -3.718   8.171  -7.854  0.00  0.00    +0.000 HD
ENDROOT
BRANCH   2  11
ATOM     11  O   UNL     1      -0.840  10.286 -10.644  0.00  0.00    +0.000 OA
ATOM     12  H   UNL     1      -0.077   9.968 -11.157  0.00  0.00    +0.000 HD
ENDBRANCH   2  11
BRANCH   1  13
ATOM     13  O   UNL     1      -0.930   8.046 -12.287  0.00  0.00    +0.000 OA
BRANCH  13  14
ATOM     14  C   UNL     1      -1.591   7.545 -13.447  0.00  0.00    +0.000 C 
ATOM     15  H   UNL     1      -1.579   6.450 -13.477  0.00  0.00    +0.000 HD
ATOM     16  H   UNL     1      -1.192   7.992 -14.364  0.00  0.00    +0.000 HD
ATOM     17  H   UNL     1      -2.641   7.849 -13.375  0.00  0.00    +0.000 HD
ENDBRANCH  13  14
ENDBRANCH   1  13
TORSDOF 3
ENDMDL
MODEL 2
REMARK VINA RESULT:    -4.608     25.802     26.751
REMARK INTER + INTRA:          -5.188
REMARK INTER:                  -5.142
REMARK INTRA:                  -0.046
REMARK UNBOUND:                -0.041
REMARK  Name = 460
REMARK  3 active torsions:
REMARK  status: ('A' for Active; 'I' for Inactive)
REMARK    1  A    between atoms: O_1  and  C_3
REMARK    2  A    between atoms: O_1  and  C_9
REMARK    3  A    between atoms: O_2  and  C_4
REMARK                            x       y       z     vdW  Elec       q    Type
REMARK                         _______ _______ _______ _____ _____    ______ ____
ROOT
ATOM      1  C   UNL     1     -20.184  -4.050   4.864  0.00  0.00    +0.000 A 
ATOM      2  C   UNL     1     -19.177  -4.988   4.638  0.00  0.00    +0.000 A 
ATOM      3  C   UNL     1     -20.807  -3.421   3.786  0.00  0.00    +0.000 A 
ATOM      4  C   UNL     1     -18.793  -5.298   3.334  0.00  0.00    +0.000 A 
ATOM      5  C   UNL     1     -20.422  -3.731   2.482  0.00  0.00    +0.000 A 
ATOM      6  C   UNL     1     -19.414  -4.669   2.255  0.00  0.00    +0.000 A 
ATOM      7  H   UNL     1     -21.595  -2.684   3.885  0.00  0.00    +0.000 HD
ATOM      8  H   UNL     1     -18.008  -6.028   3.151  0.00  0.00    +0.000 HD
ATOM      9  H   UNL     1     -20.906  -3.243   1.641  0.00  0.00    +0.000 HD
ATOM     10  H   UNL     1     -19.115  -4.910   1.240  0.00  0.00    +0.000 HD
ENDROOT
BRANCH   2  11
ATOM     11  O   UNL     1     -18.562  -5.610   5.683  0.00  0.00    +0.000 OA
ATOM     12  H   UNL     1     -17.981  -6.303   5.326  0.00  0.00    +0.000 HD
ENDBRANCH   2  11
BRANCH   1  13
ATOM     13  O   UNL     1     -20.569  -3.739   6.134  0.00  0.00    +0.000 OA
BRANCH  13  14
ATOM     14  C   UNL     1     -20.692  -2.355   6.453  0.00  0.00    +0.000 C 
ATOM     15  H   UNL     1     -19.715  -1.860   6.487  0.00  0.00    +0.000 HD
ATOM     16  H   UNL     1     -21.268  -2.201   7.373  0.00  0.00    +0.000 HD
ATOM     17  H   UNL     1     -21.257  -1.886   5.641  0.00  0.00    +0.000 HD
ENDBRANCH  13  14
ENDBRANCH   1  13
TORSDOF 3
ENDMDL
MODEL 3
REMARK VINA RESULT:    -4.337     12.942     14.046
REMARK INTER + INTRA:          -4.885
REMARK INTER:                  -4.845
REMARK INTRA:                  -0.039
REMARK UNBOUND:                -0.041
REMARK  Name = 460
REMARK  3 active torsions:
REMARK  status: ('A' for Active; 'I' for Inactive)
REMARK    1  A    between atoms: O_1  and  C_3
REMARK    2  A    between atoms: O_1  and  C_9
REMARK    3  A    between atoms: O_2  and  C_4
REMARK                            x       y       z     vdW  Elec       q    Type
REMARK                         _______ _______ _______ _____ _____    ______ ____
ROOT
ATOM      1  C   UNL     1       4.484   9.450   0.788  0.00  0.00    +0.000 A 
ATOM      2  C   UNL     1       4.154   9.077   2.091  0.00  0.00    +0.000 A 
ATOM      3  C   UNL     1       5.694   9.036   0.230  0.00  0.00    +0.000 A 
ATOM      4  C   UNL     1       5.033   8.291   2.836  0.00  0.00    +0.000 A 
ATOM      5  C   UNL     1       6.572   8.250   0.975  0.00  0.00    +0.000 A 
ATOM      6  C   UNL     1       6.242   7.877   2.278  0.00  0.00    +0.000 A 
ATOM      7  H   UNL     1       6.016   9.286  -0.775  0.00  0.00    +0.000 HD
ATOM      8  H   UNL     1       4.782   7.998   3.852  0.00  0.00    +0.000 HD
ATOM      9  H   UNL     1       7.514   7.926   0.541  0.00  0.00    +0.000 HD
ATOM     10  H   UNL     1       6.927   7.265   2.857  0.00  0.00    +0.000 HD
ENDROOT
BRANCH   2  11
ATOM     11  O   UNL     1       2.975   9.475   2.647  0.00  0.00    +0.000 OA
ATOM     12  H   UNL     1       2.726  10.329   2.256  0.00  0.00    +0.000 HD
ENDBRANCH   2  11
BRANCH   1  13
ATOM     13  O   UNL     1       3.634  10.217   0.051  0.00  0.00    +0.000 OA
BRANCH  13  14
ATOM     14  C   UNL     1       3.860  11.626   0.059  0.00  0.00    +0.000 C 
ATOM     15  H   UNL     1       4.045  11.999   1.071  0.00  0.00    +0.000 HD
ATOM     16  H   UNL     1       3.051  12.168  -0.443  0.00  0.00    +0.000 HD
ATOM     17  H   UNL     1       4.772  11.809  -0.520  0.00  0.00    +0.000 HD
ENDBRANCH  13  14
ENDBRANCH   1  13
TORSDOF 3
ENDMDL
MODEL 4
REMARK VINA RESULT:    -4.298     14.048     15.234
REMARK INTER + INTRA:          -4.841
REMARK INTER:                  -4.786
REMARK INTRA:                  -0.055
REMARK UNBOUND:                -0.041
REMARK  Name = 460
REMARK  3 active torsions:
REMARK  status: ('A' for Active; 'I' for Inactive)
REMARK    1  A    between atoms: O_1  and  C_3
REMARK    2  A    between atoms: O_1  and  C_9
REMARK    3  A    between atoms: O_2  and  C_4
REMARK                            x       y       z     vdW  Elec       q    Type
REMARK                         _______ _______ _______ _____ _____    ______ ____
ROOT
ATOM      1  C   UNL     1       5.094   8.301   2.866  0.00  0.00    +0.000 A 
ATOM      2  C   UNL     1       4.267   9.087   2.064  0.00  0.00    +0.000 A 
ATOM      3  C   UNL     1       6.291   7.800   2.355  0.00  0.00    +0.000 A 
ATOM      4  C   UNL     1       4.638   9.372   0.750  0.00  0.00    +0.000 A 
ATOM      5  C   UNL     1       6.661   8.086   1.041  0.00  0.00    +0.000 A 
ATOM      6  C   UNL     1       5.835   8.872   0.238  0.00  0.00    +0.000 A 
ATOM      7  H   UNL     1       6.982   7.184   2.919  0.00  0.00    +0.000 HD
ATOM      8  H   UNL     1       3.997   9.984   0.119  0.00  0.00    +0.000 HD
ATOM      9  H   UNL     1       7.594   7.698   0.641  0.00  0.00    +0.000 HD
ATOM     10  H   UNL     1       6.123   9.094  -0.785  0.00  0.00    +0.000 HD
ENDROOT
BRANCH   2  11
ATOM     11  O   UNL     1       3.096   9.582   2.552  0.00  0.00    +0.000 OA
ATOM     12  H   UNL     1       2.401   8.915   2.414  0.00  0.00    +0.000 HD
ENDBRANCH   2  11
BRANCH   1  13
ATOM     13  O   UNL     1       4.743   8.015   4.152  0.00  0.00    +0.000 OA
BRANCH  13  14
ATOM     14  C   UNL     1       5.444   8.706   5.184  0.00  0.00    +0.000 C 
ATOM     15  H   UNL     1       5.694   8.040   6.017  0.00  0.00    +0.000 HD
ATOM     16  H   UNL     1       4.901   9.599   5.513  0.00  0.00    +0.000 HD
ATOM     17  H   UNL     1       6.392   9.049   4.755  0.00  0.00    +0.000 HD
ENDBRANCH  13  14
ENDBRANCH   1  13
TORSDOF 3
ENDMDL
MODEL 5
REMARK VINA RESULT:    -4.207     26.875     28.090
REMARK INTER + INTRA:          -4.739
REMARK INTER:                  -4.686
REMARK INTRA:                  -0.053
REMARK UNBOUND:                -0.041
REMARK  Name = 460
REMARK  3 active torsions:
REMARK  status: ('A' for Active; 'I' for Inactive)
REMARK    1  A    between atoms: O_1  and  C_3
REMARK    2  A    between atoms: O_1  and  C_9
REMARK    3  A    between atoms: O_2  and  C_4
REMARK                            x       y       z     vdW  Elec       q    Type
REMARK                         _______ _______ _______ _____ _____    ______ ____
ROOT
ATOM      1  C   UNL     1     -21.726  -2.769   5.905  0.00  0.00    +0.000 A 
ATOM      2  C   UNL     1     -21.464  -2.313   7.196  0.00  0.00    +0.000 A 
ATOM      3  C   UNL     1     -21.313  -2.019   4.803  0.00  0.00    +0.000 A 
ATOM      4  C   UNL     1     -20.789  -1.107   7.387  0.00  0.00    +0.000 A 
ATOM      5  C   UNL     1     -20.638  -0.814   4.994  0.00  0.00    +0.000 A 
ATOM      6  C   UNL     1     -20.376  -0.357   6.286  0.00  0.00    +0.000 A 
ATOM      7  H   UNL     1     -21.481  -2.311   3.772  0.00  0.00    +0.000 HD
ATOM      8  H   UNL     1     -20.582  -0.746   8.391  0.00  0.00    +0.000 HD
ATOM      9  H   UNL     1     -20.315  -0.229   4.137  0.00  0.00    +0.000 HD
ATOM     10  H   UNL     1     -19.851   0.581   6.434  0.00  0.00    +0.000 HD
ENDROOT
BRANCH   2  11
ATOM     11  O   UNL     1     -21.861  -3.037   8.280  0.00  0.00    +0.000 OA
ATOM     12  H   UNL     1     -21.580  -3.959   8.151  0.00  0.00    +0.000 HD
ENDBRANCH   2  11
BRANCH   1  13
ATOM     13  O   UNL     1     -22.384  -3.945   5.706  0.00  0.00    +0.000 OA
BRANCH  13  14
ATOM     14  C   UNL     1     -23.770  -3.865   5.380  0.00  0.00    +0.000 C 
ATOM     15  H   UNL     1     -24.336  -3.331   6.151  0.00  0.00    +0.000 HD
ATOM     16  H   UNL     1     -24.192  -4.853   5.163  0.00  0.00    +0.000 HD
ATOM     17  H   UNL     1     -23.851  -3.275   4.460  0.00  0.00    +0.000 HD
ENDBRANCH  13  14
ENDBRANCH   1  13
TORSDOF 3
ENDMDL
MODEL 6
REMARK VINA RESULT:    -4.115     11.671     13.109
REMARK INTER + INTRA:          -4.637
REMARK INTER:                  -4.597
REMARK INTRA:                  -0.041
REMARK UNBOUND:                -0.041
REMARK  Name = 460
REMARK  3 active torsions:
REMARK  status: ('A' for Active; 'I' for Inactive)
REMARK    1  A    between atoms: O_1  and  C_3
REMARK    2  A    between atoms: O_1  and  C_9
REMARK    3  A    between atoms: O_2  and  C_4
REMARK                            x       y       z     vdW  Elec       q    Type
REMARK                         _______ _______ _______ _____ _____    ______ ____
ROOT
ATOM      1  C   UNL     1       4.424  -2.738 -14.724  0.00  0.00    +0.000 A 
ATOM      2  C   UNL     1       3.697  -2.049 -13.753  0.00  0.00    +0.000 A 
ATOM      3  C   UNL     1       5.138  -2.033 -15.693  0.00  0.00    +0.000 A 
ATOM      4  C   UNL     1       3.684  -0.654 -13.751  0.00  0.00    +0.000 A 
ATOM      5  C   UNL     1       5.125  -0.638 -15.690  0.00  0.00    +0.000 A 
ATOM      6  C   UNL     1       4.398   0.052 -14.719  0.00  0.00    +0.000 A 
ATOM      7  H   UNL     1       5.724  -2.500 -16.476  0.00  0.00    +0.000 HD
ATOM      8  H   UNL     1       3.119  -0.111 -12.997  0.00  0.00    +0.000 HD
ATOM      9  H   UNL     1       5.682  -0.087 -16.443  0.00  0.00    +0.000 HD
ATOM     10  H   UNL     1       4.388   1.137 -14.718  0.00  0.00    +0.000 HD
ENDROOT
BRANCH   2  11
ATOM     11  O   UNL     1       2.996  -2.727 -12.802  0.00  0.00    +0.000 OA
ATOM     12  H   UNL     1       2.177  -3.061 -13.206  0.00  0.00    +0.000 HD
ENDBRANCH   2  11
BRANCH   1  13
ATOM     13  O   UNL     1       4.444  -4.101 -14.737  0.00  0.00    +0.000 OA
BRANCH  13  14
ATOM     14  C   UNL     1       5.014  -4.730 -15.883  0.00  0.00    +0.000 C 
ATOM     15  H   UNL     1       5.390  -3.994 -16.601  0.00  0.00    +0.000 HD
ATOM     16  H   UNL     1       4.318  -5.442 -16.341  0.00  0.00    +0.000 HD
ATOM     17  H   UNL     1       5.878  -5.307 -15.537  0.00  0.00    +0.000 HD
ENDBRANCH  13  14
ENDBRANCH   1  13
TORSDOF 3
ENDMDL
MODEL 7
REMARK VINA RESULT:    -4.087      9.722     11.359
REMARK INTER + INTRA:          -4.606
REMARK INTER:                  -4.551
REMARK INTRA:                  -0.054
REMARK UNBOUND:                -0.041
REMARK  Name = 460
REMARK  3 active torsions:
REMARK  status: ('A' for Active; 'I' for Inactive)
REMARK    1  A    between atoms: O_1  and  C_3
REMARK    2  A    between atoms: O_1  and  C_9
REMARK    3  A    between atoms: O_2  and  C_4
REMARK                            x       y       z     vdW  Elec       q    Type
REMARK                         _______ _______ _______ _____ _____    ______ ____
ROOT
ATOM      1  C   UNL     1       2.525  -0.449 -13.770  0.00  0.00    +0.000 A 
ATOM      2  C   UNL     1       3.175  -1.655 -13.512  0.00  0.00    +0.000 A 
ATOM      3  C   UNL     1       3.145   0.524 -14.554  0.00  0.00    +0.000 A 
ATOM      4  C   UNL     1       4.446  -1.889 -14.037  0.00  0.00    +0.000 A 
ATOM      5  C   UNL     1       4.416   0.290 -15.079  0.00  0.00    +0.000 A 
ATOM      6  C   UNL     1       5.067  -0.916 -14.821  0.00  0.00    +0.000 A 
ATOM      7  H   UNL     1       2.701   1.483 -14.796  0.00  0.00    +0.000 HD
ATOM      8  H   UNL     1       4.959  -2.827 -13.839  0.00  0.00    +0.000 HD
ATOM      9  H   UNL     1       4.899   1.046 -15.690  0.00  0.00    +0.000 HD
ATOM     10  H   UNL     1       6.056  -1.098 -15.230  0.00  0.00    +0.000 HD
ENDROOT
BRANCH   2  11
ATOM     11  O   UNL     1       2.579  -2.614 -12.748  0.00  0.00    +0.000 OA
ATOM     12  H   UNL     1       3.117  -3.423 -12.800  0.00  0.00    +0.000 HD
ENDBRANCH   2  11
BRANCH   1  13
ATOM     13  O   UNL     1       1.283  -0.209 -13.263  0.00  0.00    +0.000 OA
BRANCH  13  14
ATOM     14  C   UNL     1       1.188   0.744 -12.205  0.00  0.00    +0.000 C 
ATOM     15  H   UNL     1       0.196   0.734 -11.741  0.00  0.00    +0.000 HD
ATOM     16  H   UNL     1       1.483   1.746 -12.537  0.00  0.00    +0.000 HD
ATOM     17  H   UNL     1       1.903   0.440 -11.433  0.00  0.00    +0.000 HD
ENDBRANCH  13  14
ENDBRANCH   1  13
TORSDOF 3
ENDMDL
MODEL 8
REMARK VINA RESULT:    -4.060     13.388     14.426
REMARK INTER + INTRA:          -4.575
REMARK INTER:                  -4.528
REMARK INTRA:                  -0.047
REMARK UNBOUND:                -0.041
REMARK  Name = 460
REMARK  3 active torsions:
REMARK  status: ('A' for Active; 'I' for Inactive)
REMARK    1  A    between atoms: O_1  and  C_3
REMARK    2  A    between atoms: O_1  and  C_9
REMARK    3  A    between atoms: O_2  and  C_4
REMARK                            x       y       z     vdW  Elec       q    Type
REMARK                         _______ _______ _______ _____ _____    ______ ____
ROOT
ATOM      1  C   UNL     1       5.261   9.113   1.009  0.00  0.00    +0.000 A 
ATOM      2  C   UNL     1       6.348   8.253   1.165  0.00  0.00    +0.000 A 
ATOM      3  C   UNL     1       4.256   9.151   1.975  0.00  0.00    +0.000 A 
ATOM      4  C   UNL     1       6.429   7.430   2.289  0.00  0.00    +0.000 A 
ATOM      5  C   UNL     1       4.338   8.328   3.098  0.00  0.00    +0.000 A 
ATOM      6  C   UNL     1       5.424   7.467   3.255  0.00  0.00    +0.000 A 
ATOM      7  H   UNL     1       3.384   9.793   1.920  0.00  0.00    +0.000 HD
ATOM      8  H   UNL     1       7.274   6.757   2.417  0.00  0.00    +0.000 HD
ATOM      9  H   UNL     1       3.556   8.356   3.852  0.00  0.00    +0.000 HD
ATOM     10  H   UNL     1       5.487   6.827   4.129  0.00  0.00    +0.000 HD
ENDROOT
BRANCH   2  11
ATOM     11  O   UNL     1       7.337   8.208   0.229  0.00  0.00    +0.000 OA
ATOM     12  H   UNL     1       7.196   8.939  -0.398  0.00  0.00    +0.000 HD
ENDBRANCH   2  11
BRANCH   1  13
ATOM     13  O   UNL     1       5.171   9.922  -0.084  0.00  0.00    +0.000 OA
BRANCH  13  14
ATOM     14  C   UNL     1       4.911  11.305   0.153  0.00  0.00    +0.000 C 
ATOM     15  H   UNL     1       4.234  11.448   1.002  0.00  0.00    +0.000 HD
ATOM     16  H   UNL     1       4.555  11.810  -0.753  0.00  0.00    +0.000 HD
ATOM     17  H   UNL     1       5.864  11.770   0.423  0.00  0.00    +0.000 HD
ENDBRANCH  13  14
ENDBRANCH   1  13
TORSDOF 3
ENDMDL
MODEL 9
REMARK VINA RESULT:    -4.059     26.455     27.556
REMARK INTER + INTRA:          -4.574
REMARK INTER:                  -4.521
REMARK INTRA:                  -0.054
REMARK UNBOUND:                -0.041
REMARK  Name = 460
REMARK  3 active torsions:
REMARK  status: ('A' for Active; 'I' for Inactive)
REMARK    1  A    between atoms: O_1  and  C_3
REMARK    2  A    between atoms: O_1  and  C_9
REMARK    3  A    between atoms: O_2  and  C_4
REMARK                            x       y       z     vdW  Elec       q    Type
REMARK                         _______ _______ _______ _____ _____    ______ ____
ROOT
ATOM      1  C   UNL     1     -21.531  -2.130   5.102  0.00  0.00    +0.000 A 
ATOM      2  C   UNL     1     -21.899  -2.735   6.304  0.00  0.00    +0.000 A 
ATOM      3  C   UNL     1     -20.755  -0.971   5.113  0.00  0.00    +0.000 A 
ATOM      4  C   UNL     1     -21.491  -2.180   7.517  0.00  0.00    +0.000 A 
ATOM      5  C   UNL     1     -20.347  -0.417   6.326  0.00  0.00    +0.000 A 
ATOM      6  C   UNL     1     -20.715  -1.022   7.529  0.00  0.00    +0.000 A 
ATOM      7  H   UNL     1     -20.432  -0.448   4.220  0.00  0.00    +0.000 HD
ATOM      8  H   UNL     1     -21.774  -2.647   8.457  0.00  0.00    +0.000 HD
ATOM      9  H   UNL     1     -19.742   0.485   6.337  0.00  0.00    +0.000 HD
ATOM     10  H   UNL     1     -20.397  -0.590   8.473  0.00  0.00    +0.000 HD
ENDROOT
BRANCH   2  11
ATOM     11  O   UNL     1     -22.655  -3.868   6.306  0.00  0.00    +0.000 OA
ATOM     12  H   UNL     1     -22.146  -4.576   5.876  0.00  0.00    +0.000 HD
ENDBRANCH   2  11
BRANCH   1  13
ATOM     13  O   UNL     1     -21.923  -2.663   3.911  0.00  0.00    +0.000 OA
BRANCH  13  14
ATOM     14  C   UNL     1     -20.954  -3.421   3.189  0.00  0.00    +0.000 C 
ATOM     15  H   UNL     1     -20.424  -2.805   2.456  0.00  0.00    +0.000 HD
ATOM     16  H   UNL     1     -21.396  -4.317   2.739  0.00  0.00    +0.000 HD
ATOM     17  H   UNL     1     -20.209  -3.764   3.914  0.00  0.00    +0.000 HD
ENDBRANCH  13  14
ENDBRANCH   1  13
TORSDOF 3
ENDMDL
MODEL 10
REMARK VINA RESULT:    -4.054     28.206     29.822
REMARK INTER + INTRA:          -4.568
REMARK INTER:                  -4.528
REMARK INTRA:                  -0.041
REMARK UNBOUND:                -0.041
REMARK  Name = 460
REMARK  3 active torsions:
REMARK  status: ('A' for Active; 'I' for Inactive)
REMARK    1  A    between atoms: O_1  and  C_3
REMARK    2  A    between atoms: O_1  and  C_9
REMARK    3  A    between atoms: O_2  and  C_4
REMARK                            x       y       z     vdW  Elec       q    Type
REMARK                         _______ _______ _______ _____ _____    ______ ____
ROOT
ATOM      1  C   UNL     1      -9.776   9.766  17.494  0.00  0.00    +0.000 A 
ATOM      2  C   UNL     1      -9.001   8.780  18.104  0.00  0.00    +0.000 A 
ATOM      3  C   UNL     1     -10.951  10.206  18.103  0.00  0.00    +0.000 A 
ATOM      4  C   UNL     1      -9.402   8.233  19.323  0.00  0.00    +0.000 A 
ATOM      5  C   UNL     1     -11.351   9.659  19.322  0.00  0.00    +0.000 A 
ATOM      6  C   UNL     1     -10.577   8.672  19.933  0.00  0.00    +0.000 A 
ATOM      7  H   UNL     1     -11.602  10.967  17.688  0.00  0.00    +0.000 HD
ATOM      8  H   UNL     1      -8.802   7.464  19.804  0.00  0.00    +0.000 HD
ATOM      9  H   UNL     1     -12.266  10.001  19.798  0.00  0.00    +0.000 HD
ATOM     10  H   UNL     1     -10.889   8.247  20.881  0.00  0.00    +0.000 HD
ENDROOT
BRANCH   2  11
ATOM     11  O   UNL     1      -7.850   8.342  17.520  0.00  0.00    +0.000 OA
ATOM     12  H   UNL     1      -8.082   7.891  16.690  0.00  0.00    +0.000 HD
ENDBRANCH   2  11
BRANCH   1  13
ATOM     13  O   UNL     1      -9.395  10.308  16.303  0.00  0.00    +0.000 OA
BRANCH  13  14
ATOM     14  C   UNL     1     -10.087  11.478  15.872  0.00  0.00    +0.000 C 
ATOM     15  H   UNL     1     -10.462  12.060  16.721  0.00  0.00    +0.000 HD
ATOM     16  H   UNL     1     -10.877  11.237  15.151  0.00  0.00    +0.000 HD
ATOM     17  H   UNL     1      -9.360  12.108  15.350  0.00  0.00    +0.000 HD
ENDBRANCH  13  14
ENDBRANCH   1  13
TORSDOF 3
ENDMDL
