MODEL 1
REMARK VINA RESULT:    -5.878      0.000      0.000
REMARK INTER + INTRA:          -7.240
REMARK INTER:                  -6.738
REMARK INTRA:                  -0.502
REMARK UNBOUND:                -0.503
REMARK  Name = 4763
REMARK  3 active torsions:
REMARK  status: ('A' for Active; 'I' for Inactive)
REMARK    1  A    between atoms: C_6  and  C_7
REMARK    2  A    between atoms: C_6  and  C_8
REMARK    3  A    between atoms: C_7  and  C_11
REMARK                            x       y       z     vdW  Elec       q    Type
REMARK                         _______ _______ _______ _____ _____    ______ ____
ROOT
ATOM      1  O   UNL     1      -3.947  10.308 -12.969  0.00  0.00    +0.000 OA
ATOM      2  O   UNL     1       0.245   8.083 -12.299  0.00  0.00    +0.000 OA
ATOM      3  O   UNL     1      -2.615   6.847 -15.658  0.00  0.00    +0.000 OA
ATOM      4  N   UNL     1      -3.271   8.552 -14.268  0.00  0.00    +0.000 N 
ATOM      5  N   UNL     1      -1.221   7.466 -13.944  0.00  0.00    +0.000 N 
ATOM      6  C   UNL     1      -1.921   9.168 -12.289  0.00  0.00    +0.000 C 
ATOM      7  C   UNL     1      -3.129   9.415 -13.197  0.00  0.00    +0.000 C 
ATOM      8  C   UNL     1      -0.858   8.210 -12.835  0.00  0.00    +0.000 C 
ATOM      9  C   UNL     1      -2.388   7.568 -14.685  0.00  0.00    +0.000 C 
ATOM     10  H   UNL     1      -4.105   8.675 -14.836  0.00  0.00    +0.000 HD
ATOM     11  H   UNL     1      -0.540   6.785 -14.270  0.00  0.00    +0.000 HD
ENDROOT
BRANCH   6  12
ATOM     12  C   UNL     1      -2.408   8.646 -10.967  0.00  0.00    +0.000 A 
ATOM     13  C   UNL     1      -2.849   7.332 -10.869  0.00  0.00    +0.000 A 
ATOM     14  C   UNL     1      -2.412   9.482  -9.858  0.00  0.00    +0.000 A 
ATOM     15  C   UNL     1      -3.301   6.847  -9.642  0.00  0.00    +0.000 A 
ATOM     16  C   UNL     1      -2.864   8.997  -8.631  0.00  0.00    +0.000 A 
ATOM     17  C   UNL     1      -3.309   7.679  -8.522  0.00  0.00    +0.000 A 
ATOM     18  H   UNL     1      -2.856   6.666 -11.727  0.00  0.00    +0.000 HD
ATOM     19  H   UNL     1      -2.085  10.513  -9.845  0.00  0.00    +0.000 HD
ATOM     20  H   UNL     1      -3.648   5.821  -9.558  0.00  0.00    +0.000 HD
ATOM     21  H   UNL     1      -2.870   9.644  -7.758  0.00  0.00    +0.000 HD
ATOM     22  H   UNL     1      -3.661   7.302  -7.567  0.00  0.00    +0.000 HD
ENDBRANCH   6  12
BRANCH   6  23
ATOM     23  C   UNL     1      -1.237  10.523 -12.063  0.00  0.00    +0.000 C 
ATOM     24  H   UNL     1      -0.421  10.463 -11.330  0.00  0.00    +0.000 HD
ATOM     25  H   UNL     1      -1.943  11.296 -11.728  0.00  0.00    +0.000 HD
BRANCH  23  26
ATOM     26  C   UNL     1      -0.641  11.055 -13.348  0.00  0.00    +0.000 C 
ATOM     27  H   UNL     1      -1.407  11.361 -14.069  0.00  0.00    +0.000 HD
ATOM     28  H   UNL     1       0.032  11.902 -13.183  0.00  0.00    +0.000 HD
ATOM     29  H   UNL     1      -0.048  10.270 -13.830  0.00  0.00    +0.000 HD
ENDBRANCH  23  26
ENDBRANCH   6  23
TORSDOF 3
ENDMDL
MODEL 2
REMARK VINA RESULT:    -5.795     19.700     22.007
REMARK INTER + INTRA:          -7.145
REMARK INTER:                  -6.914
REMARK INTRA:                  -0.231
REMARK UNBOUND:                -0.503
REMARK  Name = 4763
REMARK  3 active torsions:
REMARK  status: ('A' for Active; 'I' for Inactive)
REMARK    1  A    between atoms: C_6  and  C_7
REMARK    2  A    between atoms: C_6  and  C_8
REMARK    3  A    between atoms: C_7  and  C_11
REMARK                            x       y       z     vdW  Elec       q    Type
REMARK                         _______ _______ _______ _____ _____    ______ ____
ROOT
ATOM      1  O   UNL     1      -6.052  11.741   9.801  0.00  0.00    +0.000 OA
ATOM      2  O   UNL     1     -10.679  11.298   8.631  0.00  0.00    +0.000 OA
ATOM      3  O   UNL     1      -8.336   7.832  10.499  0.00  0.00    +0.000 OA
ATOM      4  N   UNL     1      -7.210   9.792  10.100  0.00  0.00    +0.000 N 
ATOM      5  N   UNL     1      -9.472   9.575   9.531  0.00  0.00    +0.000 N 
ATOM      6  C   UNL     1      -8.300  11.660   8.900  0.00  0.00    +0.000 C 
ATOM      7  C   UNL     1      -7.088  11.092   9.645  0.00  0.00    +0.000 C 
ATOM      8  C   UNL     1      -9.595  10.852   9.012  0.00  0.00    +0.000 C 
ATOM      9  C   UNL     1      -8.337   8.986  10.066  0.00  0.00    +0.000 C 
ATOM     10  H   UNL     1      -6.386   9.391  10.540  0.00  0.00    +0.000 HD
ATOM     11  H   UNL     1     -10.320   9.015   9.550  0.00  0.00    +0.000 HD
ENDROOT
BRANCH   6  12
ATOM     12  C   UNL     1      -7.947  11.808   7.447  0.00  0.00    +0.000 A 
ATOM     13  C   UNL     1      -8.291  10.804   6.551  0.00  0.00    +0.000 A 
ATOM     14  C   UNL     1      -7.282  12.949   7.014  0.00  0.00    +0.000 A 
ATOM     15  C   UNL     1      -7.964  10.941   5.202  0.00  0.00    +0.000 A 
ATOM     16  C   UNL     1      -6.955  13.086   5.666  0.00  0.00    +0.000 A 
ATOM     17  C   UNL     1      -7.296  12.082   4.758  0.00  0.00    +0.000 A 
ATOM     18  H   UNL     1      -8.808   9.904   6.873  0.00  0.00    +0.000 HD
ATOM     19  H   UNL     1      -6.979  13.778   7.640  0.00  0.00    +0.000 HD
ATOM     20  H   UNL     1      -8.229  10.158   4.497  0.00  0.00    +0.000 HD
ATOM     21  H   UNL     1      -6.435  13.975   5.318  0.00  0.00    +0.000 HD
ATOM     22  H   UNL     1      -7.041  12.189   3.709  0.00  0.00    +0.000 HD
ENDBRANCH   6  12
BRANCH   6  23
ATOM     23  C   UNL     1      -8.581  13.051   9.484  0.00  0.00    +0.000 C 
ATOM     24  H   UNL     1      -9.418  13.555   8.981  0.00  0.00    +0.000 HD
ATOM     25  H   UNL     1      -7.703  13.711   9.433  0.00  0.00    +0.000 HD
BRANCH  23  26
ATOM     26  C   UNL     1      -8.933  12.966  10.953  0.00  0.00    +0.000 C 
ATOM     27  H   UNL     1      -9.793  12.316  11.140  0.00  0.00    +0.000 HD
ATOM     28  H   UNL     1      -8.097  12.616  11.567  0.00  0.00    +0.000 HD
ATOM     29  H   UNL     1      -9.201  13.962  11.324  0.00  0.00    +0.000 HD
ENDBRANCH  23  26
ENDBRANCH   6  23
TORSDOF 3
ENDMDL
MODEL 3
REMARK VINA RESULT:    -5.782     19.192     21.573
REMARK INTER + INTRA:          -7.130
REMARK INTER:                  -6.896
REMARK INTRA:                  -0.234
REMARK UNBOUND:                -0.503
REMARK  Name = 4763
REMARK  3 active torsions:
REMARK  status: ('A' for Active; 'I' for Inactive)
REMARK    1  A    between atoms: C_6  and  C_7
REMARK    2  A    between atoms: C_6  and  C_8
REMARK    3  A    between atoms: C_7  and  C_11
REMARK                            x       y       z     vdW  Elec       q    Type
REMARK                         _______ _______ _______ _____ _____    ______ ____
ROOT
ATOM      1  O   UNL     1     -10.669  12.799   8.270  0.00  0.00    +0.000 OA
ATOM      2  O   UNL     1      -8.375   8.667   7.468  0.00  0.00    +0.000 OA
ATOM      3  O   UNL     1      -8.536  10.548  11.642  0.00  0.00    +0.000 OA
ATOM      4  N   UNL     1      -9.561  11.672   9.923  0.00  0.00    +0.000 N 
ATOM      5  N   UNL     1      -8.442   9.651   9.532  0.00  0.00    +0.000 N 
ATOM      6  C   UNL     1      -9.362  10.876   7.589  0.00  0.00    +0.000 C 
ATOM      7  C   UNL     1      -9.938  11.865   8.607  0.00  0.00    +0.000 C 
ATOM      8  C   UNL     1      -8.697   9.626   8.172  0.00  0.00    +0.000 C 
ATOM      9  C   UNL     1      -8.821  10.622  10.445  0.00  0.00    +0.000 C 
ATOM     10  H   UNL     1      -9.892  12.363  10.591  0.00  0.00    +0.000 HD
ATOM     11  H   UNL     1      -7.946   8.848   9.911  0.00  0.00    +0.000 HD
ENDROOT
BRANCH   6  12
ATOM     12  C   UNL     1      -8.363  11.597   6.728  0.00  0.00    +0.000 A 
ATOM     13  C   UNL     1      -7.599  12.621   7.273  0.00  0.00    +0.000 A 
ATOM     14  C   UNL     1      -8.214  11.231   5.397  0.00  0.00    +0.000 A 
ATOM     15  C   UNL     1      -6.672  13.290   6.474  0.00  0.00    +0.000 A 
ATOM     16  C   UNL     1      -7.288  11.900   4.597  0.00  0.00    +0.000 A 
ATOM     17  C   UNL     1      -6.516  12.930   5.136  0.00  0.00    +0.000 A 
ATOM     18  H   UNL     1      -7.706  12.922   8.311  0.00  0.00    +0.000 HD
ATOM     19  H   UNL     1      -8.764  10.447   4.892  0.00  0.00    +0.000 HD
ATOM     20  H   UNL     1      -6.072  14.093   6.894  0.00  0.00    +0.000 HD
ATOM     21  H   UNL     1      -7.164  11.619   3.555  0.00  0.00    +0.000 HD
ATOM     22  H   UNL     1      -5.795  13.450   4.514  0.00  0.00    +0.000 HD
ENDBRANCH   6  12
BRANCH   6  23
ATOM     23  C   UNL     1     -10.524  10.402   6.707  0.00  0.00    +0.000 C 
ATOM     24  H   UNL     1     -10.181   9.820   5.840  0.00  0.00    +0.000 HD
ATOM     25  H   UNL     1     -11.137  11.237   6.339  0.00  0.00    +0.000 HD
BRANCH  23  26
ATOM     26  C   UNL     1     -11.476   9.520   7.485  0.00  0.00    +0.000 C 
ATOM     27  H   UNL     1     -11.163   8.471   7.490  0.00  0.00    +0.000 HD
ATOM     28  H   UNL     1     -11.601   9.846   8.522  0.00  0.00    +0.000 HD
ATOM     29  H   UNL     1     -12.468   9.553   7.021  0.00  0.00    +0.000 HD
ENDBRANCH  23  26
ENDBRANCH   6  23
TORSDOF 3
ENDMDL
MODEL 4
REMARK VINA RESULT:    -5.632     35.290     37.678
REMARK INTER + INTRA:          -6.958
REMARK INTER:                  -6.428
REMARK INTRA:                  -0.531
REMARK UNBOUND:                -0.503
REMARK  Name = 4763
REMARK  3 active torsions:
REMARK  status: ('A' for Active; 'I' for Inactive)
REMARK    1  A    between atoms: C_6  and  C_7
REMARK    2  A    between atoms: C_6  and  C_8
REMARK    3  A    between atoms: C_7  and  C_11
REMARK                            x       y       z     vdW  Elec       q    Type
REMARK                         _______ _______ _______ _____ _____    ______ ____
ROOT
ATOM      1  O   UNL     1      -9.895 -12.322  19.640  0.00  0.00    +0.000 OA
ATOM      2  O   UNL     1     -12.456 -14.276  16.090  0.00  0.00    +0.000 OA
ATOM      3  O   UNL     1      -9.019 -16.546  18.096  0.00  0.00    +0.000 OA
ATOM      4  N   UNL     1      -9.458 -14.412  18.820  0.00  0.00    +0.000 N 
ATOM      5  N   UNL     1     -10.711 -15.369  17.087  0.00  0.00    +0.000 N 
ATOM      6  C   UNL     1     -11.139 -13.004  17.676  0.00  0.00    +0.000 C 
ATOM      7  C   UNL     1     -10.126 -13.202  18.807  0.00  0.00    +0.000 C 
ATOM      8  C   UNL     1     -11.515 -14.260  16.885  0.00  0.00    +0.000 C 
ATOM      9  C   UNL     1      -9.680 -15.509  18.003  0.00  0.00    +0.000 C 
ATOM     10  H   UNL     1      -8.741 -14.521  19.533  0.00  0.00    +0.000 HD
ATOM     11  H   UNL     1     -10.921 -16.185  16.518  0.00  0.00    +0.000 HD
ENDROOT
BRANCH   6  12
ATOM     12  C   UNL     1     -10.601 -11.976  16.721  0.00  0.00    +0.000 A 
ATOM     13  C   UNL     1      -9.404 -12.215  16.057  0.00  0.00    +0.000 A 
ATOM     14  C   UNL     1     -11.307 -10.798  16.511  0.00  0.00    +0.000 A 
ATOM     15  C   UNL     1      -8.905 -11.261  15.171  0.00  0.00    +0.000 A 
ATOM     16  C   UNL     1     -10.808  -9.844  15.624  0.00  0.00    +0.000 A 
ATOM     17  C   UNL     1      -9.606 -10.075  14.953  0.00  0.00    +0.000 A 
ATOM     18  H   UNL     1      -8.838 -13.129  16.213  0.00  0.00    +0.000 HD
ATOM     19  H   UNL     1     -12.245 -10.532  16.981  0.00  0.00    +0.000 HD
ATOM     20  H   UNL     1      -7.969 -11.441  14.649  0.00  0.00    +0.000 HD
ATOM     21  H   UNL     1     -11.354  -8.921  15.453  0.00  0.00    +0.000 HD
ATOM     22  H   UNL     1      -9.218  -9.333  14.263  0.00  0.00    +0.000 HD
ENDBRANCH   6  12
BRANCH   6  23
ATOM     23  C   UNL     1     -12.428 -12.463  18.308  0.00  0.00    +0.000 C 
ATOM     24  H   UNL     1     -13.219 -12.292  17.565  0.00  0.00    +0.000 HD
ATOM     25  H   UNL     1     -12.263 -11.525  18.856  0.00  0.00    +0.000 HD
BRANCH  23  26
ATOM     26  C   UNL     1     -12.982 -13.432  19.331  0.00  0.00    +0.000 C 
ATOM     27  H   UNL     1     -12.219 -14.115  19.716  0.00  0.00    +0.000 HD
ATOM     28  H   UNL     1     -13.451 -12.926  20.180  0.00  0.00    +0.000 HD
ATOM     29  H   UNL     1     -13.757 -14.052  18.866  0.00  0.00    +0.000 HD
ENDBRANCH  23  26
ENDBRANCH   6  23
TORSDOF 3
ENDMDL
MODEL 5
REMARK VINA RESULT:    -5.615      8.311      9.883
REMARK INTER + INTRA:          -6.939
REMARK INTER:                  -6.581
REMARK INTRA:                  -0.358
REMARK UNBOUND:                -0.503
REMARK  Name = 4763
REMARK  3 active torsions:
REMARK  status: ('A' for Active; 'I' for Inactive)
REMARK    1  A    between atoms: C_6  and  C_7
REMARK    2  A    between atoms: C_6  and  C_8
REMARK    3  A    between atoms: C_7  and  C_11
REMARK                            x       y       z     vdW  Elec       q    Type
REMARK                         _______ _______ _______ _____ _____    ______ ____
ROOT
ATOM      1  O   UNL     1      -6.922   5.978  -7.513  0.00  0.00    +0.000 OA
ATOM      2  O   UNL     1     -11.118   4.893  -5.463  0.00  0.00    +0.000 OA
ATOM      3  O   UNL     1      -9.706   2.802  -9.288  0.00  0.00    +0.000 OA
ATOM      4  N   UNL     1      -8.352   4.426  -8.395  0.00  0.00    +0.000 N 
ATOM      5  N   UNL     1     -10.401   3.893  -7.392  0.00  0.00    +0.000 N 
ATOM      6  C   UNL     1      -9.096   5.778  -6.462  0.00  0.00    +0.000 C 
ATOM      7  C   UNL     1      -8.016   5.410  -7.483  0.00  0.00    +0.000 C 
ATOM      8  C   UNL     1     -10.288   4.821  -6.372  0.00  0.00    +0.000 C 
ATOM      9  C   UNL     1      -9.504   3.655  -8.421  0.00  0.00    +0.000 C 
ATOM     10  H   UNL     1      -7.661   4.224  -9.112  0.00  0.00    +0.000 HD
ATOM     11  H   UNL     1     -11.225   3.297  -7.367  0.00  0.00    +0.000 HD
ENDROOT
BRANCH   6  12
ATOM     12  C   UNL     1      -9.607   7.157  -6.776  0.00  0.00    +0.000 A 
ATOM     13  C   UNL     1      -9.826   7.522  -8.098  0.00  0.00    +0.000 A 
ATOM     14  C   UNL     1      -9.856   8.048  -5.741  0.00  0.00    +0.000 A 
ATOM     15  C   UNL     1     -10.300   8.801  -8.390  0.00  0.00    +0.000 A 
ATOM     16  C   UNL     1     -10.330   9.327  -6.032  0.00  0.00    +0.000 A 
ATOM     17  C   UNL     1     -10.552   9.704  -7.358  0.00  0.00    +0.000 A 
ATOM     18  H   UNL     1      -9.633   6.838  -8.919  0.00  0.00    +0.000 HD
ATOM     19  H   UNL     1      -9.717   7.847  -4.687  0.00  0.00    +0.000 HD
ATOM     20  H   UNL     1     -10.472   9.095  -9.422  0.00  0.00    +0.000 HD
ATOM     21  H   UNL     1     -10.528  10.032  -5.229  0.00  0.00    +0.000 HD
ATOM     22  H   UNL     1     -10.922  10.700  -7.584  0.00  0.00    +0.000 HD
ENDBRANCH   6  12
BRANCH   6  23
ATOM     23  C   UNL     1      -8.428   5.803  -5.081  0.00  0.00    +0.000 C 
ATOM     24  H   UNL     1      -9.079   6.235  -4.308  0.00  0.00    +0.000 HD
ATOM     25  H   UNL     1      -7.481   6.361  -5.085  0.00  0.00    +0.000 HD
BRANCH  23  26
ATOM     26  C   UNL     1      -8.067   4.406  -4.625  0.00  0.00    +0.000 C 
ATOM     27  H   UNL     1      -8.448   3.634  -5.300  0.00  0.00    +0.000 HD
ATOM     28  H   UNL     1      -6.987   4.263  -4.516  0.00  0.00    +0.000 HD
ATOM     29  H   UNL     1      -8.511   4.215  -3.641  0.00  0.00    +0.000 HD
ENDBRANCH  23  26
ENDBRANCH   6  23
TORSDOF 3
ENDMDL
MODEL 6
REMARK VINA RESULT:    -5.587      8.992     10.008
REMARK INTER + INTRA:          -6.906
REMARK INTER:                  -6.668
REMARK INTRA:                  -0.238
REMARK UNBOUND:                -0.503
REMARK  Name = 4763
REMARK  3 active torsions:
REMARK  status: ('A' for Active; 'I' for Inactive)
REMARK    1  A    between atoms: C_6  and  C_7
REMARK    2  A    between atoms: C_6  and  C_8
REMARK    3  A    between atoms: C_7  and  C_11
REMARK                            x       y       z     vdW  Elec       q    Type
REMARK                         _______ _______ _______ _____ _____    ______ ____
ROOT
ATOM      1  O   UNL     1      -1.122  -2.394 -14.833  0.00  0.00    +0.000 OA
ATOM      2  O   UNL     1       1.050   1.316 -12.713  0.00  0.00    +0.000 OA
ATOM      3  O   UNL     1       3.059  -2.791 -13.001  0.00  0.00    +0.000 OA
ATOM      4  N   UNL     1       0.947  -2.570 -13.875  0.00  0.00    +0.000 N 
ATOM      5  N   UNL     1       2.011  -0.756 -12.841  0.00  0.00    +0.000 N 
ATOM      6  C   UNL     1      -0.330  -0.470 -13.591  0.00  0.00    +0.000 C 
ATOM      7  C   UNL     1      -0.216  -1.884 -14.170  0.00  0.00    +0.000 C 
ATOM      8  C   UNL     1       0.960   0.127 -13.023  0.00  0.00    +0.000 C 
ATOM      9  C   UNL     1       2.069  -2.088 -13.218  0.00  0.00    +0.000 C 
ATOM     10  H   UNL     1       0.999  -3.529 -14.205  0.00  0.00    +0.000 HD
ATOM     11  H   UNL     1       2.847  -0.375 -12.407  0.00  0.00    +0.000 HD
ENDROOT
BRANCH   6  12
ATOM     12  C   UNL     1      -1.377  -0.473 -12.513  0.00  0.00    +0.000 A 
ATOM     13  C   UNL     1      -0.994  -0.627 -11.186  0.00  0.00    +0.000 A 
ATOM     14  C   UNL     1      -2.714  -0.320 -12.854  0.00  0.00    +0.000 A 
ATOM     15  C   UNL     1      -1.966  -0.630 -10.185  0.00  0.00    +0.000 A 
ATOM     16  C   UNL     1      -3.685  -0.322 -11.853  0.00  0.00    +0.000 A 
ATOM     17  C   UNL     1      -3.311  -0.477 -10.518  0.00  0.00    +0.000 A 
ATOM     18  H   UNL     1       0.047  -0.752 -10.903  0.00  0.00    +0.000 HD
ATOM     19  H   UNL     1      -3.099  -0.192 -13.857  0.00  0.00    +0.000 HD
ATOM     20  H   UNL     1      -1.674  -0.751  -9.145  0.00  0.00    +0.000 HD
ATOM     21  H   UNL     1      -4.734  -0.203 -12.111  0.00  0.00    +0.000 HD
ATOM     22  H   UNL     1      -4.067  -0.479  -9.739  0.00  0.00    +0.000 HD
ENDBRANCH   6  12
BRANCH   6  23
ATOM     23  C   UNL     1      -0.794   0.451 -14.727  0.00  0.00    +0.000 C 
ATOM     24  H   UNL     1      -0.961   1.483 -14.388  0.00  0.00    +0.000 HD
ATOM     25  H   UNL     1      -1.718   0.093 -15.204  0.00  0.00    +0.000 HD
BRANCH  23  26
ATOM     26  C   UNL     1       0.232   0.508 -15.838  0.00  0.00    +0.000 C 
ATOM     27  H   UNL     1       0.794  -0.425 -15.936  0.00  0.00    +0.000 HD
ATOM     28  H   UNL     1      -0.210   0.747 -16.810  0.00  0.00    +0.000 HD
ATOM     29  H   UNL     1       0.962   1.297 -15.621  0.00  0.00    +0.000 HD
ENDBRANCH  23  26
ENDBRANCH   6  23
TORSDOF 3
ENDMDL
MODEL 7
REMARK VINA RESULT:    -5.580     10.617     11.859
REMARK INTER + INTRA:          -6.898
REMARK INTER:                  -6.419
REMARK INTRA:                  -0.479
REMARK UNBOUND:                -0.503
REMARK  Name = 4763
REMARK  3 active torsions:
REMARK  status: ('A' for Active; 'I' for Inactive)
REMARK    1  A    between atoms: C_6  and  C_7
REMARK    2  A    between atoms: C_6  and  C_8
REMARK    3  A    between atoms: C_7  and  C_11
REMARK                            x       y       z     vdW  Elec       q    Type
REMARK                         _______ _______ _______ _____ _____    ______ ____
ROOT
ATOM      1  O   UNL     1       2.613  -0.363 -16.521  0.00  0.00    +0.000 OA
ATOM      2  O   UNL     1       4.022  -3.227 -12.945  0.00  0.00    +0.000 OA
ATOM      3  O   UNL     1       2.355  -4.924 -16.860  0.00  0.00    +0.000 OA
ATOM      4  N   UNL     1       2.461  -2.641 -16.644  0.00  0.00    +0.000 N 
ATOM      5  N   UNL     1       3.151  -4.042 -14.897  0.00  0.00    +0.000 N 
ATOM      6  C   UNL     1       3.135  -1.599 -14.504  0.00  0.00    +0.000 C 
ATOM      7  C   UNL     1       2.728  -1.462 -15.974  0.00  0.00    +0.000 C 
ATOM      8  C   UNL     1       3.492  -3.013 -14.037  0.00  0.00    +0.000 C 
ATOM      9  C   UNL     1       2.630  -3.936 -16.177  0.00  0.00    +0.000 C 
ATOM     10  H   UNL     1       2.131  -2.550 -17.601  0.00  0.00    +0.000 HD
ATOM     11  H   UNL     1       3.332  -4.985 -14.563  0.00  0.00    +0.000 HD
ENDROOT
BRANCH   6  12
ATOM     12  C   UNL     1       2.020  -1.074 -13.643  0.00  0.00    +0.000 A 
ATOM     13  C   UNL     1       2.143   0.174 -13.046  0.00  0.00    +0.000 A 
ATOM     14  C   UNL     1       0.877  -1.842 -13.457  0.00  0.00    +0.000 A 
ATOM     15  C   UNL     1       1.109   0.661 -12.248  0.00  0.00    +0.000 A 
ATOM     16  C   UNL     1      -0.158  -1.354 -12.659  0.00  0.00    +0.000 A 
ATOM     17  C   UNL     1      -0.042  -0.102 -12.054  0.00  0.00    +0.000 A 
ATOM     18  H   UNL     1       3.031   0.785 -13.179  0.00  0.00    +0.000 HD
ATOM     19  H   UNL     1       0.697  -2.819 -13.884  0.00  0.00    +0.000 HD
ATOM     20  H   UNL     1       1.199   1.636 -11.776  0.00  0.00    +0.000 HD
ATOM     21  H   UNL     1      -1.055  -1.948 -12.507  0.00  0.00    +0.000 HD
ATOM     22  H   UNL     1      -0.848   0.277 -11.433  0.00  0.00    +0.000 HD
ENDBRANCH   6  12
BRANCH   6  23
ATOM     23  C   UNL     1       4.376  -0.723 -14.291  0.00  0.00    +0.000 C 
ATOM     24  H   UNL     1       4.779  -0.808 -13.272  0.00  0.00    +0.000 HD
ATOM     25  H   UNL     1       4.178   0.339 -14.494  0.00  0.00    +0.000 HD
BRANCH  23  26
ATOM     26  C   UNL     1       5.488  -1.112 -15.242  0.00  0.00    +0.000 C 
ATOM     27  H   UNL     1       6.427  -1.326 -14.722  0.00  0.00    +0.000 HD
ATOM     28  H   UNL     1       5.232  -1.978 -15.859  0.00  0.00    +0.000 HD
ATOM     29  H   UNL     1       5.688  -0.282 -15.929  0.00  0.00    +0.000 HD
ENDBRANCH  23  26
ENDBRANCH   6  23
TORSDOF 3
ENDMDL
MODEL 8
REMARK VINA RESULT:    -5.393     11.335     13.262
REMARK INTER + INTRA:          -6.684
REMARK INTER:                  -6.151
REMARK INTRA:                  -0.533
REMARK UNBOUND:                -0.503
REMARK  Name = 4763
REMARK  3 active torsions:
REMARK  status: ('A' for Active; 'I' for Inactive)
REMARK    1  A    between atoms: C_6  and  C_7
REMARK    2  A    between atoms: C_6  and  C_8
REMARK    3  A    between atoms: C_7  and  C_11
REMARK                            x       y       z     vdW  Elec       q    Type
REMARK                         _______ _______ _______ _____ _____    ______ ____
ROOT
ATOM      1  O   UNL     1       1.182  -1.807 -16.543  0.00  0.00    +0.000 OA
ATOM      2  O   UNL     1       4.042  -3.415 -13.048  0.00  0.00    +0.000 OA
ATOM      3  O   UNL     1       1.561   0.404 -12.549  0.00  0.00    +0.000 OA
ATOM      4  N   UNL     1       1.423  -0.706 -14.553  0.00  0.00    +0.000 N 
ATOM      5  N   UNL     1       2.819  -1.492 -12.844  0.00  0.00    +0.000 N 
ATOM      6  C   UNL     1       2.873  -2.653 -15.028  0.00  0.00    +0.000 C 
ATOM      7  C   UNL     1       1.747  -1.706 -15.452  0.00  0.00    +0.000 C 
ATOM      8  C   UNL     1       3.295  -2.578 -13.559  0.00  0.00    +0.000 C 
ATOM      9  C   UNL     1       1.916  -0.531 -13.269  0.00  0.00    +0.000 C 
ATOM     10  H   UNL     1       0.719  -0.039 -14.858  0.00  0.00    +0.000 HD
ATOM     11  H   UNL     1       3.147  -1.408 -11.885  0.00  0.00    +0.000 HD
ENDROOT
BRANCH   6  12
ATOM     12  C   UNL     1       4.076  -2.388 -15.890  0.00  0.00    +0.000 A 
ATOM     13  C   UNL     1       4.743  -1.174 -15.781  0.00  0.00    +0.000 A 
ATOM     14  C   UNL     1       4.508  -3.359 -16.783  0.00  0.00    +0.000 A 
ATOM     15  C   UNL     1       5.860  -0.928 -16.581  0.00  0.00    +0.000 A 
ATOM     16  C   UNL     1       5.624  -3.113 -17.583  0.00  0.00    +0.000 A 
ATOM     17  C   UNL     1       6.301  -1.897 -17.482  0.00  0.00    +0.000 A 
ATOM     18  H   UNL     1       4.417  -0.403 -15.090  0.00  0.00    +0.000 HD
ATOM     19  H   UNL     1       4.051  -4.329 -16.931  0.00  0.00    +0.000 HD
ATOM     20  H   UNL     1       6.386   0.020 -16.502  0.00  0.00    +0.000 HD
ATOM     21  H   UNL     1       5.969  -3.868 -18.284  0.00  0.00    +0.000 HD
ATOM     22  H   UNL     1       7.169  -1.706 -18.104  0.00  0.00    +0.000 HD
ENDBRANCH   6  12
BRANCH   6  23
ATOM     23  C   UNL     1       2.386  -4.085 -15.288  0.00  0.00    +0.000 C 
ATOM     24  H   UNL     1       3.163  -4.835 -15.084  0.00  0.00    +0.000 HD
ATOM     25  H   UNL     1       2.036  -4.225 -16.320  0.00  0.00    +0.000 HD
BRANCH  23  26
ATOM     26  C   UNL     1       1.200  -4.425 -14.413  0.00  0.00    +0.000 C 
ATOM     27  H   UNL     1       0.246  -4.306 -14.936  0.00  0.00    +0.000 HD
ATOM     28  H   UNL     1       1.248  -5.443 -14.013  0.00  0.00    +0.000 HD
ATOM     29  H   UNL     1       1.174  -3.748 -13.551  0.00  0.00    +0.000 HD
ENDBRANCH  23  26
ENDBRANCH   6  23
TORSDOF 3
ENDMDL
MODEL 9
REMARK VINA RESULT:    -5.341     33.447     35.190
REMARK INTER + INTRA:          -6.625
REMARK INTER:                  -6.098
REMARK INTRA:                  -0.527
REMARK UNBOUND:                -0.503
REMARK  Name = 4763
REMARK  3 active torsions:
REMARK  status: ('A' for Active; 'I' for Inactive)
REMARK    1  A    between atoms: C_6  and  C_7
REMARK    2  A    between atoms: C_6  and  C_8
REMARK    3  A    between atoms: C_7  and  C_11
REMARK                            x       y       z     vdW  Elec       q    Type
REMARK                         _______ _______ _______ _____ _____    ______ ____
ROOT
ATOM      1  O   UNL     1     -16.947  -8.354  16.383  0.00  0.00    +0.000 OA
ATOM      2  O   UNL     1     -15.208  -3.982  15.463  0.00  0.00    +0.000 OA
ATOM      3  O   UNL     1     -12.714  -7.756  14.737  0.00  0.00    +0.000 OA
ATOM      4  N   UNL     1     -14.826  -8.020  15.598  0.00  0.00    +0.000 N 
ATOM      5  N   UNL     1     -13.975  -5.884  15.146  0.00  0.00    +0.000 N 
ATOM      6  C   UNL     1     -16.189  -6.057  16.238  0.00  0.00    +0.000 C 
ATOM      7  C   UNL     1     -16.044  -7.573  16.076  0.00  0.00    +0.000 C 
ATOM      8  C   UNL     1     -15.103  -5.205  15.577  0.00  0.00    +0.000 C 
ATOM      9  C   UNL     1     -13.764  -7.253  15.141  0.00  0.00    +0.000 C 
ATOM     10  H   UNL     1     -14.705  -9.027  15.548  0.00  0.00    +0.000 HD
ATOM     11  H   UNL     1     -13.227  -5.312  14.762  0.00  0.00    +0.000 HD
ENDROOT
BRANCH   6  12
ATOM     12  C   UNL     1     -16.231  -5.731  17.705  0.00  0.00    +0.000 A 
ATOM     13  C   UNL     1     -17.420  -5.294  18.276  0.00  0.00    +0.000 A 
ATOM     14  C   UNL     1     -15.083  -5.872  18.473  0.00  0.00    +0.000 A 
ATOM     15  C   UNL     1     -17.460  -4.992  19.638  0.00  0.00    +0.000 A 
ATOM     16  C   UNL     1     -15.123  -5.570  19.834  0.00  0.00    +0.000 A 
ATOM     17  C   UNL     1     -16.312  -5.130  20.417  0.00  0.00    +0.000 A 
ATOM     18  H   UNL     1     -18.326  -5.175  17.689  0.00  0.00    +0.000 HD
ATOM     19  H   UNL     1     -14.119  -6.207  18.112  0.00  0.00    +0.000 HD
ATOM     20  H   UNL     1     -18.386  -4.648  20.091  0.00  0.00    +0.000 HD
ATOM     21  H   UNL     1     -14.229  -5.678  20.443  0.00  0.00    +0.000 HD
ATOM     22  H   UNL     1     -16.342  -4.895  21.476  0.00  0.00    +0.000 HD
ENDBRANCH   6  12
BRANCH   6  23
ATOM     23  C   UNL     1     -17.528  -5.657  15.605  0.00  0.00    +0.000 C 
ATOM     24  H   UNL     1     -17.760  -4.593  15.752  0.00  0.00    +0.000 HD
ATOM     25  H   UNL     1     -18.368  -6.249  15.996  0.00  0.00    +0.000 HD
BRANCH  23  26
ATOM     26  C   UNL     1     -17.522  -5.907  14.113  0.00  0.00    +0.000 C 
ATOM     27  H   UNL     1     -18.112  -5.168  13.562  0.00  0.00    +0.000 HD
ATOM     28  H   UNL     1     -16.512  -5.923  13.691  0.00  0.00    +0.000 HD
ATOM     29  H   UNL     1     -17.966  -6.887  13.903  0.00  0.00    +0.000 HD
ENDBRANCH  23  26
ENDBRANCH   6  23
TORSDOF 3
ENDMDL
MODEL 10
REMARK VINA RESULT:    -5.190      9.565     10.990
REMARK INTER + INTRA:          -6.451
REMARK INTER:                  -5.949
REMARK INTRA:                  -0.503
REMARK UNBOUND:                -0.503
REMARK  Name = 4763
REMARK  3 active torsions:
REMARK  status: ('A' for Active; 'I' for Inactive)
REMARK    1  A    between atoms: C_6  and  C_7
REMARK    2  A    between atoms: C_6  and  C_8
REMARK    3  A    between atoms: C_7  and  C_11
REMARK                            x       y       z     vdW  Elec       q    Type
REMARK                         _______ _______ _______ _____ _____    ______ ____
ROOT
ATOM      1  O   UNL     1       0.126  -3.392 -15.135  0.00  0.00    +0.000 OA
ATOM      2  O   UNL     1       2.253   0.657 -13.700  0.00  0.00    +0.000 OA
ATOM      3  O   UNL     1       3.983  -3.457 -12.663  0.00  0.00    +0.000 OA
ATOM      4  N   UNL     1       2.029  -3.391 -13.867  0.00  0.00    +0.000 N 
ATOM      5  N   UNL     1       3.071  -1.412 -13.168  0.00  0.00    +0.000 N 
ATOM      6  C   UNL     1       0.880  -1.244 -14.304  0.00  0.00    +0.000 C 
ATOM      7  C   UNL     1       0.968  -2.762 -14.492  0.00  0.00    +0.000 C 
ATOM      8  C   UNL     1       2.121  -0.568 -13.716  0.00  0.00    +0.000 C 
ATOM      9  C   UNL     1       3.085  -2.798 -13.191  0.00  0.00    +0.000 C 
ATOM     10  H   UNL     1       2.056  -4.404 -13.939  0.00  0.00    +0.000 HD
ATOM     11  H   UNL     1       3.868  -0.963 -12.723  0.00  0.00    +0.000 HD
ENDROOT
BRANCH   6  12
ATOM     12  C   UNL     1      -0.300  -0.935 -13.425  0.00  0.00    +0.000 A 
ATOM     13  C   UNL     1      -1.466  -0.436 -13.992  0.00  0.00    +0.000 A 
ATOM     14  C   UNL     1      -0.212  -1.154 -12.057  0.00  0.00    +0.000 A 
ATOM     15  C   UNL     1      -2.561  -0.150 -13.177  0.00  0.00    +0.000 A 
ATOM     16  C   UNL     1      -1.307  -0.867 -11.241  0.00  0.00    +0.000 A 
ATOM     17  C   UNL     1      -2.482  -0.365 -11.802  0.00  0.00    +0.000 A 
ATOM     18  H   UNL     1      -1.550  -0.256 -15.060  0.00  0.00    +0.000 HD
ATOM     19  H   UNL     1       0.652  -1.541 -11.533  0.00  0.00    +0.000 HD
ATOM     20  H   UNL     1      -3.475   0.242 -13.614  0.00  0.00    +0.000 HD
ATOM     21  H   UNL     1      -1.248  -1.036 -10.170  0.00  0.00    +0.000 HD
ATOM     22  H   UNL     1      -3.334  -0.142 -11.167  0.00  0.00    +0.000 HD
ENDBRANCH   6  12
BRANCH   6  23
ATOM     23  C   UNL     1       0.639  -0.627 -15.688  0.00  0.00    +0.000 C 
ATOM     24  H   UNL     1       0.505   0.462 -15.643  0.00  0.00    +0.000 HD
ATOM     25  H   UNL     1      -0.237  -1.061 -16.192  0.00  0.00    +0.000 HD
BRANCH  23  26
ATOM     26  C   UNL     1       1.806  -0.893 -16.614  0.00  0.00    +0.000 C 
ATOM     27  H   UNL     1       2.132  -1.937 -16.586  0.00  0.00    +0.000 HD
ATOM     28  H   UNL     1       1.588  -0.629 -17.654  0.00  0.00    +0.000 HD
ATOM     29  H   UNL     1       2.664  -0.284 -16.307  0.00  0.00    +0.000 HD
ENDBRANCH  23  26
ENDBRANCH   6  23
TORSDOF 3
ENDMDL
