MODEL 1
REMARK VINA RESULT:    -4.277      0.000      0.000
REMARK INTER + INTRA:          -6.081
REMARK INTER:                  -5.869
REMARK INTRA:                  -0.211
REMARK UNBOUND:                -0.304
REMARK  Name = 8094
REMARK  7 active torsions:
REMARK  status: ('A' for Active; 'I' for Inactive)
REMARK    1  A    between atoms: O_1  and  C_9
REMARK    2  A    between atoms: C_3  and  C_4
REMARK    3  A    between atoms: C_3  and  C_5
REMARK    4  A    between atoms: C_4  and  C_6
REMARK    5  A    between atoms: C_5  and  C_7
REMARK    6  A    between atoms: C_6  and  C_8
REMARK    7  A    between atoms: C_7  and  C_9
REMARK                            x       y       z     vdW  Elec       q    Type
REMARK                         _______ _______ _______ _____ _____    ______ ____
ROOT
ATOM      1  C   UNL     1      -2.741   9.638 -10.042  0.00  0.00    +0.000 C 
ATOM      2  H   UNL     1      -3.257  10.557  -9.736  0.00  0.00    +0.000 HD
ATOM      3  H   UNL     1      -3.228   9.281 -10.957  0.00  0.00    +0.000 HD
ENDROOT
BRANCH   1   4
ATOM      4  C   UNL     1      -2.879   8.581  -8.943  0.00  0.00    +0.000 C 
ATOM      5  H   UNL     1      -1.965   8.566  -8.337  0.00  0.00    +0.000 HD
ATOM      6  H   UNL     1      -3.699   8.864  -8.272  0.00  0.00    +0.000 HD
BRANCH   4   7
ATOM      7  C   UNL     1      -3.138   7.174  -9.485  0.00  0.00    +0.000 C 
ATOM      8  H   UNL     1      -2.268   6.538  -9.277  0.00  0.00    +0.000 HD
ATOM      9  H   UNL     1      -3.244   7.219 -10.576  0.00  0.00    +0.000 HD
BRANCH   7  10
ATOM     10  C   UNL     1      -4.378   6.516  -8.900  0.00  0.00    +0.000 C 
ATOM     11  H   UNL     1      -4.094   5.762  -8.159  0.00  0.00    +0.000 HD
ATOM     12  H   UNL     1      -4.965   6.024  -9.681  0.00  0.00    +0.000 HD
ATOM     13  H   UNL     1      -5.016   7.256  -8.407  0.00  0.00    +0.000 HD
ENDBRANCH   7  10
ENDBRANCH   4   7
ENDBRANCH   1   4
BRANCH   1  14
ATOM     14  C   UNL     1      -1.267   9.945 -10.331  0.00  0.00    +0.000 C 
ATOM     15  H   UNL     1      -0.634   9.177  -9.870  0.00  0.00    +0.000 HD
ATOM     16  H   UNL     1      -0.993  10.898  -9.861  0.00  0.00    +0.000 HD
BRANCH  14  17
ATOM     17  C   UNL     1      -0.967  10.011 -11.829  0.00  0.00    +0.000 C 
ATOM     18  H   UNL     1      -0.235  10.805 -12.023  0.00  0.00    +0.000 HD
ATOM     19  H   UNL     1      -1.889  10.242 -12.374  0.00  0.00    +0.000 HD
BRANCH  17  21
ATOM     20  O   UNL     1      -0.657   7.599 -11.965  0.00  0.00    +0.000 OA
ATOM     21  C   UNL     1      -0.407   8.721 -12.383  0.00  0.00    +0.000 C 
BRANCH  21  22
ATOM     22  O   UNL     1       0.409   8.950 -13.445  0.00  0.00    +0.000 OA
ATOM     23  H   UNL     1       0.501   9.909 -13.634  0.00  0.00    +0.000 HD
ENDBRANCH  21  22
ENDBRANCH  17  21
ENDBRANCH  14  17
ENDBRANCH   1  14
TORSDOF 7
ENDMDL
MODEL 2
REMARK VINA RESULT:    -4.250     14.049     14.783
REMARK INTER + INTRA:          -6.045
REMARK INTER:                  -5.708
REMARK INTRA:                  -0.337
REMARK UNBOUND:                -0.304
REMARK  Name = 8094
REMARK  7 active torsions:
REMARK  status: ('A' for Active; 'I' for Inactive)
REMARK    1  A    between atoms: O_1  and  C_9
REMARK    2  A    between atoms: C_3  and  C_4
REMARK    3  A    between atoms: C_3  and  C_5
REMARK    4  A    between atoms: C_4  and  C_6
REMARK    5  A    between atoms: C_5  and  C_7
REMARK    6  A    between atoms: C_6  and  C_8
REMARK    7  A    between atoms: C_7  and  C_9
REMARK                            x       y       z     vdW  Elec       q    Type
REMARK                         _______ _______ _______ _____ _____    ______ ____
ROOT
ATOM      1  C   UNL     1       6.756   8.457   1.111  0.00  0.00    +0.000 C 
ATOM      2  H   UNL     1       6.452   7.525   0.620  0.00  0.00    +0.000 HD
ATOM      3  H   UNL     1       7.812   8.626   0.865  0.00  0.00    +0.000 HD
ENDROOT
BRANCH   1   4
ATOM      4  C   UNL     1       6.602   8.313   2.628  0.00  0.00    +0.000 C 
ATOM      5  H   UNL     1       7.540   8.607   3.117  0.00  0.00    +0.000 HD
ATOM      6  H   UNL     1       5.832   9.009   2.979  0.00  0.00    +0.000 HD
BRANCH   4   7
ATOM      7  C   UNL     1       6.235   6.895   3.068  0.00  0.00    +0.000 C 
ATOM      8  H   UNL     1       7.011   6.512   3.743  0.00  0.00    +0.000 HD
ATOM      9  H   UNL     1       6.223   6.235   2.193  0.00  0.00    +0.000 HD
BRANCH   7  10
ATOM     10  C   UNL     1       4.888   6.806   3.768  0.00  0.00    +0.000 C 
ATOM     11  H   UNL     1       4.539   5.768   3.790  0.00  0.00    +0.000 HD
ATOM     12  H   UNL     1       4.137   7.407   3.246  0.00  0.00    +0.000 HD
ATOM     13  H   UNL     1       4.959   7.164   4.799  0.00  0.00    +0.000 HD
ENDBRANCH   7  10
ENDBRANCH   4   7
ENDBRANCH   1   4
BRANCH   1  14
ATOM     14  C   UNL     1       5.913   9.621   0.579  0.00  0.00    +0.000 C 
ATOM     15  H   UNL     1       6.207   9.846  -0.454  0.00  0.00    +0.000 HD
ATOM     16  H   UNL     1       6.123  10.523   1.166  0.00  0.00    +0.000 HD
BRANCH  14  17
ATOM     17  C   UNL     1       4.413   9.324   0.622  0.00  0.00    +0.000 C 
ATOM     18  H   UNL     1       4.248   8.326   1.044  0.00  0.00    +0.000 HD
ATOM     19  H   UNL     1       4.010   9.346  -0.396  0.00  0.00    +0.000 HD
BRANCH  17  21
ATOM     20  O   UNL     1       3.370  11.465   1.135  0.00  0.00    +0.000 OA
ATOM     21  C   UNL     1       3.633  10.314   1.456  0.00  0.00    +0.000 C 
BRANCH  21  22
ATOM     22  O   UNL     1       3.221   9.760   2.627  0.00  0.00    +0.000 OA
ATOM     23  H   UNL     1       3.778   8.994   2.883  0.00  0.00    +0.000 HD
ENDBRANCH  21  22
ENDBRANCH  17  21
ENDBRANCH  14  17
ENDBRANCH   1  14
TORSDOF 7
ENDMDL
MODEL 3
REMARK VINA RESULT:    -4.012     12.722     13.324
REMARK INTER + INTRA:          -5.723
REMARK INTER:                  -5.549
REMARK INTRA:                  -0.174
REMARK UNBOUND:                -0.304
REMARK  Name = 8094
REMARK  7 active torsions:
REMARK  status: ('A' for Active; 'I' for Inactive)
REMARK    1  A    between atoms: O_1  and  C_9
REMARK    2  A    between atoms: C_3  and  C_4
REMARK    3  A    between atoms: C_3  and  C_5
REMARK    4  A    between atoms: C_4  and  C_6
REMARK    5  A    between atoms: C_5  and  C_7
REMARK    6  A    between atoms: C_6  and  C_8
REMARK    7  A    between atoms: C_7  and  C_9
REMARK                            x       y       z     vdW  Elec       q    Type
REMARK                         _______ _______ _______ _____ _____    ______ ____
ROOT
ATOM      1  C   UNL     1       6.095  11.463  -0.161  0.00  0.00    +0.000 C 
ATOM      2  H   UNL     1       6.319  12.387   0.385  0.00  0.00    +0.000 HD
ATOM      3  H   UNL     1       5.789  11.750  -1.175  0.00  0.00    +0.000 HD
ENDROOT
BRANCH   1   4
ATOM      4  C   UNL     1       4.946  10.722   0.528  0.00  0.00    +0.000 C 
ATOM      5  H   UNL     1       5.002   9.655   0.280  0.00  0.00    +0.000 HD
ATOM      6  H   UNL     1       5.068  10.800   1.615  0.00  0.00    +0.000 HD
BRANCH   4   7
ATOM      7  C   UNL     1       3.564  11.250   0.139  0.00  0.00    +0.000 C 
ATOM      8  H   UNL     1       3.433  12.260   0.547  0.00  0.00    +0.000 HD
ATOM      9  H   UNL     1       2.793  10.620   0.598  0.00  0.00    +0.000 HD
BRANCH   7  10
ATOM     10  C   UNL     1       3.331  11.293  -1.363  0.00  0.00    +0.000 C 
ATOM     11  H   UNL     1       2.267  11.161  -1.586  0.00  0.00    +0.000 HD
ATOM     12  H   UNL     1       3.886  10.496  -1.867  0.00  0.00    +0.000 HD
ATOM     13  H   UNL     1       3.651  12.252  -1.780  0.00  0.00    +0.000 HD
ENDBRANCH   7  10
ENDBRANCH   4   7
ENDBRANCH   1   4
BRANCH   1  14
ATOM     14  C   UNL     1       7.352  10.588  -0.233  0.00  0.00    +0.000 C 
ATOM     15  H   UNL     1       7.347   9.869   0.594  0.00  0.00    +0.000 HD
ATOM     16  H   UNL     1       8.242  11.215  -0.097  0.00  0.00    +0.000 HD
BRANCH  14  17
ATOM     17  C   UNL     1       7.461   9.830  -1.558  0.00  0.00    +0.000 C 
ATOM     18  H   UNL     1       7.685  10.535  -2.367  0.00  0.00    +0.000 HD
ATOM     19  H   UNL     1       6.507   9.337  -1.773  0.00  0.00    +0.000 HD
BRANCH  17  21
ATOM     20  O   UNL     1       9.742   8.983  -1.431  0.00  0.00    +0.000 OA
ATOM     21  C   UNL     1       8.543   8.774  -1.552  0.00  0.00    +0.000 C 
BRANCH  21  22
ATOM     22  O   UNL     1       8.018   7.526  -1.676  0.00  0.00    +0.000 OA
ATOM     23  H   UNL     1       8.608   6.930  -2.185  0.00  0.00    +0.000 HD
ENDBRANCH  21  22
ENDBRANCH  17  21
ENDBRANCH  14  17
ENDBRANCH   1  14
TORSDOF 7
ENDMDL
MODEL 4
REMARK VINA RESULT:    -3.840     18.640     20.069
REMARK INTER + INTRA:          -5.491
REMARK INTER:                  -5.272
REMARK INTRA:                  -0.219
REMARK UNBOUND:                -0.304
REMARK  Name = 8094
REMARK  7 active torsions:
REMARK  status: ('A' for Active; 'I' for Inactive)
REMARK    1  A    between atoms: O_1  and  C_9
REMARK    2  A    between atoms: C_3  and  C_4
REMARK    3  A    between atoms: C_3  and  C_5
REMARK    4  A    between atoms: C_4  and  C_6
REMARK    5  A    between atoms: C_5  and  C_7
REMARK    6  A    between atoms: C_6  and  C_8
REMARK    7  A    between atoms: C_7  and  C_9
REMARK                            x       y       z     vdW  Elec       q    Type
REMARK                         _______ _______ _______ _____ _____    ______ ____
ROOT
ATOM      1  C   UNL     1      -8.550  11.801   6.847  0.00  0.00    +0.000 C 
ATOM      2  H   UNL     1      -9.617  12.028   6.728  0.00  0.00    +0.000 HD
ATOM      3  H   UNL     1      -8.011  12.756   6.841  0.00  0.00    +0.000 HD
ENDROOT
BRANCH   1   4
ATOM      4  C   UNL     1      -8.074  10.937   5.676  0.00  0.00    +0.000 C 
ATOM      5  H   UNL     1      -7.436  10.130   6.057  0.00  0.00    +0.000 HD
ATOM      6  H   UNL     1      -8.941  10.460   5.205  0.00  0.00    +0.000 HD
BRANCH   4   7
ATOM      7  C   UNL     1      -7.299  11.725   4.618  0.00  0.00    +0.000 C 
ATOM      8  H   UNL     1      -7.966  11.962   3.780  0.00  0.00    +0.000 HD
ATOM      9  H   UNL     1      -6.494  11.097   4.216  0.00  0.00    +0.000 HD
BRANCH   7  10
ATOM     10  C   UNL     1      -6.694  13.017   5.145  0.00  0.00    +0.000 C 
ATOM     11  H   UNL     1      -6.930  13.142   6.207  0.00  0.00    +0.000 HD
ATOM     12  H   UNL     1      -7.089  13.882   4.604  0.00  0.00    +0.000 HD
ATOM     13  H   UNL     1      -5.606  13.011   5.036  0.00  0.00    +0.000 HD
ENDBRANCH   7  10
ENDBRANCH   4   7
ENDBRANCH   1   4
BRANCH   1  14
ATOM     14  C   UNL     1      -8.320  11.091   8.186  0.00  0.00    +0.000 C 
ATOM     15  H   UNL     1      -8.106  10.030   8.008  0.00  0.00    +0.000 HD
ATOM     16  H   UNL     1      -9.240  11.127   8.783  0.00  0.00    +0.000 HD
BRANCH  14  17
ATOM     17  C   UNL     1      -7.171  11.709   8.986  0.00  0.00    +0.000 C 
ATOM     18  H   UNL     1      -7.531  12.596   9.520  0.00  0.00    +0.000 HD
ATOM     19  H   UNL     1      -6.373  12.011   8.299  0.00  0.00    +0.000 HD
BRANCH  17  21
ATOM     20  O   UNL     1      -6.808   9.565  10.084  0.00  0.00    +0.000 OA
ATOM     21  C   UNL     1      -6.579  10.764  10.006  0.00  0.00    +0.000 C 
BRANCH  21  22
ATOM     22  O   UNL     1      -5.718  11.409  10.837  0.00  0.00    +0.000 OA
ATOM     23  H   UNL     1      -4.787  11.140  10.679  0.00  0.00    +0.000 HD
ENDBRANCH  21  22
ENDBRANCH  17  21
ENDBRANCH  14  17
ENDBRANCH   1  14
TORSDOF 7
ENDMDL
MODEL 5
REMARK VINA RESULT:    -3.837      2.526      3.696
REMARK INTER + INTRA:          -5.486
REMARK INTER:                  -5.173
REMARK INTRA:                  -0.314
REMARK UNBOUND:                -0.304
REMARK  Name = 8094
REMARK  7 active torsions:
REMARK  status: ('A' for Active; 'I' for Inactive)
REMARK    1  A    between atoms: O_1  and  C_9
REMARK    2  A    between atoms: C_3  and  C_4
REMARK    3  A    between atoms: C_3  and  C_5
REMARK    4  A    between atoms: C_4  and  C_6
REMARK    5  A    between atoms: C_5  and  C_7
REMARK    6  A    between atoms: C_6  and  C_8
REMARK    7  A    between atoms: C_7  and  C_9
REMARK                            x       y       z     vdW  Elec       q    Type
REMARK                         _______ _______ _______ _____ _____    ______ ____
ROOT
ATOM      1  C   UNL     1      -4.436   6.720  -9.783  0.00  0.00    +0.000 C 
ATOM      2  H   UNL     1      -4.577   5.690  -9.435  0.00  0.00    +0.000 HD
ATOM      3  H   UNL     1      -5.106   7.358  -9.194  0.00  0.00    +0.000 HD
ENDROOT
BRANCH   1   4
ATOM      4  C   UNL     1      -4.809   6.818 -11.264  0.00  0.00    +0.000 C 
ATOM      5  H   UNL     1      -5.400   5.939 -11.548  0.00  0.00    +0.000 HD
ATOM      6  H   UNL     1      -5.452   7.693 -11.416  0.00  0.00    +0.000 HD
BRANCH   4   7
ATOM      7  C   UNL     1      -3.595   6.921 -12.191  0.00  0.00    +0.000 C 
ATOM      8  H   UNL     1      -2.804   6.254 -11.828  0.00  0.00    +0.000 HD
ATOM      9  H   UNL     1      -3.194   7.941 -12.150  0.00  0.00    +0.000 HD
BRANCH   7  10
ATOM     10  C   UNL     1      -3.905   6.575 -13.638  0.00  0.00    +0.000 C 
ATOM     11  H   UNL     1      -3.952   7.485 -14.245  0.00  0.00    +0.000 HD
ATOM     12  H   UNL     1      -4.868   6.061 -13.719  0.00  0.00    +0.000 HD
ATOM     13  H   UNL     1      -3.133   5.924 -14.058  0.00  0.00    +0.000 HD
ENDBRANCH   7  10
ENDBRANCH   4   7
ENDBRANCH   1   4
BRANCH   1  14
ATOM     14  C   UNL     1      -2.983   7.150  -9.550  0.00  0.00    +0.000 C 
ATOM     15  H   UNL     1      -2.441   7.147 -10.504  0.00  0.00    +0.000 HD
ATOM     16  H   UNL     1      -2.483   6.416  -8.906  0.00  0.00    +0.000 HD
BRANCH  14  17
ATOM     17  C   UNL     1      -2.878   8.538  -8.916  0.00  0.00    +0.000 C 
ATOM     18  H   UNL     1      -2.228   8.492  -8.035  0.00  0.00    +0.000 HD
ATOM     19  H   UNL     1      -3.874   8.869  -8.603  0.00  0.00    +0.000 HD
BRANCH  17  21
ATOM     20  O   UNL     1      -1.135   9.902  -9.934  0.00  0.00    +0.000 OA
ATOM     21  C   UNL     1      -2.312   9.581  -9.854  0.00  0.00    +0.000 C 
BRANCH  21  22
ATOM     22  O   UNL     1      -3.283  10.120 -10.638  0.00  0.00    +0.000 OA
ATOM     23  H   UNL     1      -4.082   9.552 -10.672  0.00  0.00    +0.000 HD
ENDBRANCH  21  22
ENDBRANCH  17  21
ENDBRANCH  14  17
ENDBRANCH   1  14
TORSDOF 7
ENDMDL
MODEL 6
REMARK VINA RESULT:    -3.829      1.530      2.454
REMARK INTER + INTRA:          -5.475
REMARK INTER:                  -5.216
REMARK INTRA:                  -0.259
REMARK UNBOUND:                -0.304
REMARK  Name = 8094
REMARK  7 active torsions:
REMARK  status: ('A' for Active; 'I' for Inactive)
REMARK    1  A    between atoms: O_1  and  C_9
REMARK    2  A    between atoms: C_3  and  C_4
REMARK    3  A    between atoms: C_3  and  C_5
REMARK    4  A    between atoms: C_4  and  C_6
REMARK    5  A    between atoms: C_5  and  C_7
REMARK    6  A    between atoms: C_6  and  C_8
REMARK    7  A    between atoms: C_7  and  C_9
REMARK                            x       y       z     vdW  Elec       q    Type
REMARK                         _______ _______ _______ _____ _____    ______ ____
ROOT
ATOM      1  C   UNL     1      -3.340   7.099 -10.714  0.00  0.00    +0.000 C 
ATOM      2  H   UNL     1      -3.612   8.135 -10.950  0.00  0.00    +0.000 HD
ATOM      3  H   UNL     1      -4.160   6.459 -11.063  0.00  0.00    +0.000 HD
ENDROOT
BRANCH   1   4
ATOM      4  C   UNL     1      -3.178   6.941  -9.200  0.00  0.00    +0.000 C 
ATOM      5  H   UNL     1      -3.966   6.281  -8.818  0.00  0.00    +0.000 HD
ATOM      6  H   UNL     1      -2.222   6.448  -8.990  0.00  0.00    +0.000 HD
BRANCH   4   7
ATOM      7  C   UNL     1      -3.233   8.270  -8.443  0.00  0.00    +0.000 C 
ATOM      8  H   UNL     1      -2.829   8.129  -7.432  0.00  0.00    +0.000 HD
ATOM      9  H   UNL     1      -4.279   8.577  -8.326  0.00  0.00    +0.000 HD
BRANCH   7  10
ATOM     10  C   UNL     1      -2.467   9.391  -9.127  0.00  0.00    +0.000 C 
ATOM     11  H   UNL     1      -3.150  10.195  -9.419  0.00  0.00    +0.000 HD
ATOM     12  H   UNL     1      -1.963   9.027 -10.028  0.00  0.00    +0.000 HD
ATOM     13  H   UNL     1      -1.711   9.812  -8.458  0.00  0.00    +0.000 HD
ENDBRANCH   7  10
ENDBRANCH   4   7
ENDBRANCH   1   4
BRANCH   1  14
ATOM     14  C   UNL     1      -2.049   6.723 -11.450  0.00  0.00    +0.000 C 
ATOM     15  H   UNL     1      -2.052   5.649 -11.674  0.00  0.00    +0.000 HD
ATOM     16  H   UNL     1      -1.188   6.902 -10.794  0.00  0.00    +0.000 HD
BRANCH  14  17
ATOM     17  C   UNL     1      -1.868   7.508 -12.751  0.00  0.00    +0.000 C 
ATOM     18  H   UNL     1      -2.850   7.725 -13.188  0.00  0.00    +0.000 HD
ATOM     19  H   UNL     1      -1.292   6.905 -13.461  0.00  0.00    +0.000 HD
BRANCH  17  21
ATOM     20  O   UNL     1       0.015   8.950 -12.196  0.00  0.00    +0.000 OA
ATOM     21  C   UNL     1      -1.146   8.822 -12.559  0.00  0.00    +0.000 C 
BRANCH  21  22
ATOM     22  O   UNL     1      -1.946   9.876 -12.868  0.00  0.00    +0.000 OA
ATOM     23  H   UNL     1      -1.790  10.198 -13.782  0.00  0.00    +0.000 HD
ENDBRANCH  21  22
ENDBRANCH  17  21
ENDBRANCH  14  17
ENDBRANCH   1  14
TORSDOF 7
ENDMDL
MODEL 7
REMARK VINA RESULT:    -3.809     18.254     19.840
REMARK INTER + INTRA:          -5.448
REMARK INTER:                  -5.299
REMARK INTRA:                  -0.149
REMARK UNBOUND:                -0.304
REMARK  Name = 8094
REMARK  7 active torsions:
REMARK  status: ('A' for Active; 'I' for Inactive)
REMARK    1  A    between atoms: O_1  and  C_9
REMARK    2  A    between atoms: C_3  and  C_4
REMARK    3  A    between atoms: C_3  and  C_5
REMARK    4  A    between atoms: C_4  and  C_6
REMARK    5  A    between atoms: C_5  and  C_7
REMARK    6  A    between atoms: C_6  and  C_8
REMARK    7  A    between atoms: C_7  and  C_9
REMARK                            x       y       z     vdW  Elec       q    Type
REMARK                         _______ _______ _______ _____ _____    ______ ____
ROOT
ATOM      1  C   UNL     1      -8.634  11.169   6.542  0.00  0.00    +0.000 C 
ATOM      2  H   UNL     1      -9.611  11.645   6.390  0.00  0.00    +0.000 HD
ATOM      3  H   UNL     1      -8.033  11.850   7.157  0.00  0.00    +0.000 HD
ENDROOT
BRANCH   1   4
ATOM      4  C   UNL     1      -7.947  10.961   5.190  0.00  0.00    +0.000 C 
ATOM      5  H   UNL     1      -7.270  10.100   5.256  0.00  0.00    +0.000 HD
ATOM      6  H   UNL     1      -8.703  10.711   4.437  0.00  0.00    +0.000 HD
BRANCH   4   7
ATOM      7  C   UNL     1      -7.154  12.182   4.718  0.00  0.00    +0.000 C 
ATOM      8  H   UNL     1      -7.739  12.727   3.967  0.00  0.00    +0.000 HD
ATOM      9  H   UNL     1      -6.235  11.847   4.222  0.00  0.00    +0.000 HD
BRANCH   7  10
ATOM     10  C   UNL     1      -6.784  13.137   5.842  0.00  0.00    +0.000 C 
ATOM     11  H   UNL     1      -6.905  14.174   5.515  0.00  0.00    +0.000 HD
ATOM     12  H   UNL     1      -5.743  12.995   6.148  0.00  0.00    +0.000 HD
ATOM     13  H   UNL     1      -7.424  12.978   6.715  0.00  0.00    +0.000 HD
ENDBRANCH   7  10
ENDBRANCH   4   7
ENDBRANCH   1   4
BRANCH   1  14
ATOM     14  C   UNL     1      -8.817   9.838   7.279  0.00  0.00    +0.000 C 
ATOM     15  H   UNL     1      -8.042   9.131   6.959  0.00  0.00    +0.000 HD
ATOM     16  H   UNL     1      -9.780   9.394   6.999  0.00  0.00    +0.000 HD
BRANCH  14  17
ATOM     17  C   UNL     1      -8.755   9.998   8.799  0.00  0.00    +0.000 C 
ATOM     18  H   UNL     1      -9.718   9.715   9.239  0.00  0.00    +0.000 HD
ATOM     19  H   UNL     1      -8.550  11.046   9.045  0.00  0.00    +0.000 HD
BRANCH  17  21
ATOM     20  O   UNL     1      -6.956   9.497  10.365  0.00  0.00    +0.000 OA
ATOM     21  C   UNL     1      -7.684   9.148   9.445  0.00  0.00    +0.000 C 
BRANCH  21  22
ATOM     22  O   UNL     1      -7.635   7.908   8.891  0.00  0.00    +0.000 OA
ATOM     23  H   UNL     1      -6.911   7.831   8.233  0.00  0.00    +0.000 HD
ENDBRANCH  21  22
ENDBRANCH  17  21
ENDBRANCH  14  17
ENDBRANCH   1  14
TORSDOF 7
ENDMDL
MODEL 8
REMARK VINA RESULT:    -3.782      9.098      9.977
REMARK INTER + INTRA:          -5.413
REMARK INTER:                  -5.178
REMARK INTRA:                  -0.235
REMARK UNBOUND:                -0.304
REMARK  Name = 8094
REMARK  7 active torsions:
REMARK  status: ('A' for Active; 'I' for Inactive)
REMARK    1  A    between atoms: O_1  and  C_9
REMARK    2  A    between atoms: C_3  and  C_4
REMARK    3  A    between atoms: C_3  and  C_5
REMARK    4  A    between atoms: C_4  and  C_6
REMARK    5  A    between atoms: C_5  and  C_7
REMARK    6  A    between atoms: C_6  and  C_8
REMARK    7  A    between atoms: C_7  and  C_9
REMARK                            x       y       z     vdW  Elec       q    Type
REMARK                         _______ _______ _______ _____ _____    ______ ____
ROOT
ATOM      1  C   UNL     1     -10.772   7.617  -5.487  0.00  0.00    +0.000 C 
ATOM      2  H   UNL     1     -11.562   7.092  -4.937  0.00  0.00    +0.000 HD
ATOM      3  H   UNL     1     -10.244   8.256  -4.769  0.00  0.00    +0.000 HD
ENDROOT
BRANCH   1   4
ATOM      4  C   UNL     1     -11.399   8.488  -6.580  0.00  0.00    +0.000 C 
ATOM      5  H   UNL     1     -11.787   7.844  -7.378  0.00  0.00    +0.000 HD
ATOM      6  H   UNL     1     -12.258   9.026  -6.163  0.00  0.00    +0.000 HD
BRANCH   4   7
ATOM      7  C   UNL     1     -10.422   9.497  -7.187  0.00  0.00    +0.000 C 
ATOM      8  H   UNL     1      -9.433   9.365  -6.729  0.00  0.00    +0.000 HD
ATOM      9  H   UNL     1     -10.752  10.513  -6.942  0.00  0.00    +0.000 HD
BRANCH   7  10
ATOM     10  C   UNL     1     -10.284   9.376  -8.696  0.00  0.00    +0.000 C 
ATOM     11  H   UNL     1      -9.269   9.063  -8.962  0.00  0.00    +0.000 HD
ATOM     12  H   UNL     1     -10.484  10.334  -9.184  0.00  0.00    +0.000 HD
ATOM     13  H   UNL     1     -10.984   8.635  -9.094  0.00  0.00    +0.000 HD
ENDBRANCH   7  10
ENDBRANCH   4   7
ENDBRANCH   1   4
BRANCH   1  14
ATOM     14  C   UNL     1      -9.794   6.600  -6.085  0.00  0.00    +0.000 C 
ATOM     15  H   UNL     1      -9.767   6.713  -7.176  0.00  0.00    +0.000 HD
ATOM     16  H   UNL     1     -10.156   5.584  -5.886  0.00  0.00    +0.000 HD
BRANCH  14  17
ATOM     17  C   UNL     1      -8.378   6.754  -5.528  0.00  0.00    +0.000 C 
ATOM     18  H   UNL     1      -8.288   7.717  -5.012  0.00  0.00    +0.000 HD
ATOM     19  H   UNL     1      -7.659   6.728  -6.354  0.00  0.00    +0.000 HD
BRANCH  17  21
ATOM     20  O   UNL     1      -8.360   4.499  -4.605  0.00  0.00    +0.000 OA
ATOM     21  C   UNL     1      -8.002   5.667  -4.547  0.00  0.00    +0.000 C 
BRANCH  21  22
ATOM     22  O   UNL     1      -7.176   6.140  -3.576  0.00  0.00    +0.000 OA
ATOM     23  H   UNL     1      -6.346   5.621  -3.518  0.00  0.00    +0.000 HD
ENDBRANCH  21  22
ENDBRANCH  17  21
ENDBRANCH  14  17
ENDBRANCH   1  14
TORSDOF 7
ENDMDL
MODEL 9
REMARK VINA RESULT:    -3.723      8.975      9.730
REMARK INTER + INTRA:          -5.333
REMARK INTER:                  -5.201
REMARK INTRA:                  -0.132
REMARK UNBOUND:                -0.304
REMARK  Name = 8094
REMARK  7 active torsions:
REMARK  status: ('A' for Active; 'I' for Inactive)
REMARK    1  A    between atoms: O_1  and  C_9
REMARK    2  A    between atoms: C_3  and  C_4
REMARK    3  A    between atoms: C_3  and  C_5
REMARK    4  A    between atoms: C_4  and  C_6
REMARK    5  A    between atoms: C_5  and  C_7
REMARK    6  A    between atoms: C_6  and  C_8
REMARK    7  A    between atoms: C_7  and  C_9
REMARK                            x       y       z     vdW  Elec       q    Type
REMARK                         _______ _______ _______ _____ _____    ______ ____
ROOT
ATOM      1  C   UNL     1       0.875   0.690 -12.362  0.00  0.00    +0.000 C 
ATOM      2  H   UNL     1       1.382   0.081 -11.604  0.00  0.00    +0.000 HD
ATOM      3  H   UNL     1       0.664   1.666 -11.909  0.00  0.00    +0.000 HD
ENDROOT
BRANCH   1   4
ATOM      4  C   UNL     1      -0.440   0.019 -12.767  0.00  0.00    +0.000 C 
ATOM      5  H   UNL     1      -1.216   0.785 -12.885  0.00  0.00    +0.000 HD
ATOM      6  H   UNL     1      -0.314  -0.457 -13.747  0.00  0.00    +0.000 HD
BRANCH   4   7
ATOM      7  C   UNL     1      -0.923  -1.026 -11.760  0.00  0.00    +0.000 C 
ATOM      8  H   UNL     1      -0.056  -1.539 -11.324  0.00  0.00    +0.000 HD
ATOM      9  H   UNL     1      -1.513  -1.788 -12.283  0.00  0.00    +0.000 HD
BRANCH   7  10
ATOM     10  C   UNL     1      -1.764  -0.442 -10.635  0.00  0.00    +0.000 C 
ATOM     11  H   UNL     1      -2.001   0.606 -10.843  0.00  0.00    +0.000 HD
ATOM     12  H   UNL     1      -1.228  -0.488  -9.683  0.00  0.00    +0.000 HD
ATOM     13  H   UNL     1      -2.705  -0.990 -10.527  0.00  0.00    +0.000 HD
ENDBRANCH   7  10
ENDBRANCH   4   7
ENDBRANCH   1   4
BRANCH   1  14
ATOM     14  C   UNL     1       1.796   0.877 -13.574  0.00  0.00    +0.000 C 
ATOM     15  H   UNL     1       2.569   1.618 -13.337  0.00  0.00    +0.000 HD
ATOM     16  H   UNL     1       1.219   1.285 -14.412  0.00  0.00    +0.000 HD
BRANCH  14  17
ATOM     17  C   UNL     1       2.465  -0.429 -14.006  0.00  0.00    +0.000 C 
ATOM     18  H   UNL     1       2.073  -0.738 -14.982  0.00  0.00    +0.000 HD
ATOM     19  H   UNL     1       2.241  -1.211 -13.273  0.00  0.00    +0.000 HD
BRANCH  17  21
ATOM     20  O   UNL     1       4.782  -1.082 -13.625  0.00  0.00    +0.000 OA
ATOM     21  C   UNL     1       3.969  -0.317 -14.126  0.00  0.00    +0.000 C 
BRANCH  21  22
ATOM     22  O   UNL     1       4.326   0.745 -14.895  0.00  0.00    +0.000 OA
ATOM     23  H   UNL     1       5.016   1.293 -14.462  0.00  0.00    +0.000 HD
ENDBRANCH  21  22
ENDBRANCH  17  21
ENDBRANCH  14  17
ENDBRANCH   1  14
TORSDOF 7
ENDMDL
MODEL 10
REMARK VINA RESULT:    -3.682     17.985     18.858
REMARK INTER + INTRA:          -5.277
REMARK INTER:                  -4.973
REMARK INTRA:                  -0.304
REMARK UNBOUND:                -0.304
REMARK  Name = 8094
REMARK  7 active torsions:
REMARK  status: ('A' for Active; 'I' for Inactive)
REMARK    1  A    between atoms: O_1  and  C_9
REMARK    2  A    between atoms: C_3  and  C_4
REMARK    3  A    between atoms: C_3  and  C_5
REMARK    4  A    between atoms: C_4  and  C_6
REMARK    5  A    between atoms: C_5  and  C_7
REMARK    6  A    between atoms: C_6  and  C_8
REMARK    7  A    between atoms: C_7  and  C_9
REMARK                            x       y       z     vdW  Elec       q    Type
REMARK                         _______ _______ _______ _____ _____    ______ ____
ROOT
ATOM      1  C   UNL     1       8.119   9.264   4.929  0.00  0.00    +0.000 C 
ATOM      2  H   UNL     1       8.977   8.917   4.342  0.00  0.00    +0.000 HD
ATOM      3  H   UNL     1       7.438   9.777   4.239  0.00  0.00    +0.000 HD
ENDROOT
BRANCH   1   4
ATOM      4  C   UNL     1       8.593  10.245   6.003  0.00  0.00    +0.000 C 
ATOM      5  H   UNL     1       9.614   9.985   6.308  0.00  0.00    +0.000 HD
ATOM      6  H   UNL     1       8.638  11.253   5.575  0.00  0.00    +0.000 HD
BRANCH   4   7
ATOM      7  C   UNL     1       7.695  10.268   7.243  0.00  0.00    +0.000 C 
ATOM      8  H   UNL     1       6.887   9.536   7.119  0.00  0.00    +0.000 HD
ATOM      9  H   UNL     1       7.222  11.253   7.330  0.00  0.00    +0.000 HD
BRANCH   7  10
ATOM     10  C   UNL     1       8.438   9.966   8.535  0.00  0.00    +0.000 C 
ATOM     11  H   UNL     1       8.040   9.058   8.999  0.00  0.00    +0.000 HD
ATOM     12  H   UNL     1       8.331  10.789   9.248  0.00  0.00    +0.000 HD
ATOM     13  H   UNL     1       9.504   9.813   8.346  0.00  0.00    +0.000 HD
ENDBRANCH   7  10
ENDBRANCH   4   7
ENDBRANCH   1   4
BRANCH   1  14
ATOM     14  C   UNL     1       7.402   8.062   5.556  0.00  0.00    +0.000 C 
ATOM     15  H   UNL     1       6.990   8.348   6.532  0.00  0.00    +0.000 HD
ATOM     16  H   UNL     1       8.128   7.262   5.746  0.00  0.00    +0.000 HD
BRANCH  14  17
ATOM     17  C   UNL     1       6.275   7.527   4.671  0.00  0.00    +0.000 C 
ATOM     18  H   UNL     1       5.779   6.688   5.174  0.00  0.00    +0.000 HD
ATOM     19  H   UNL     1       6.694   7.171   3.724  0.00  0.00    +0.000 HD
BRANCH  17  21
ATOM     20  O   UNL     1       4.859   8.894   3.234  0.00  0.00    +0.000 OA
ATOM     21  C   UNL     1       5.221   8.565   4.355  0.00  0.00    +0.000 C 
BRANCH  21  22
ATOM     22  O   UNL     1       4.686   9.089   5.490  0.00  0.00    +0.000 OA
ATOM     23  H   UNL     1       5.259   9.787   5.874  0.00  0.00    +0.000 HD
ENDBRANCH  21  22
ENDBRANCH  17  21
ENDBRANCH  14  17
ENDBRANCH   1  14
TORSDOF 7
ENDMDL
