MODEL 1
REMARK VINA RESULT:    -4.324      0.000      0.000
REMARK INTER + INTRA:          -5.736
REMARK INTER:                  -5.653
REMARK INTRA:                  -0.083
REMARK UNBOUND:                -0.148
REMARK  Name = 8892
REMARK  6 active torsions:
REMARK  status: ('A' for Active; 'I' for Inactive)
REMARK    1  A    between atoms: O_1  and  C_8
REMARK    2  A    between atoms: C_3  and  C_4
REMARK    3  A    between atoms: C_3  and  C_5
REMARK    4  A    between atoms: C_4  and  C_6
REMARK    5  A    between atoms: C_5  and  C_7
REMARK    6  A    between atoms: C_6  and  C_8
REMARK                            x       y       z     vdW  Elec       q    Type
REMARK                         _______ _______ _______ _____ _____    ______ ____
ROOT
ATOM      1  C   UNL     1     -20.872  -2.073   4.883  0.00  0.00    +0.000 C 
ATOM      2  H   UNL     1     -21.930  -2.129   4.593  0.00  0.00    +0.000 HD
ATOM      3  H   UNL     1     -20.299  -2.019   3.949  0.00  0.00    +0.000 HD
ENDROOT
BRANCH   1   4
ATOM      4  C   UNL     1     -20.494  -3.365   5.611  0.00  0.00    +0.000 C 
ATOM      5  H   UNL     1     -19.514  -3.236   6.089  0.00  0.00    +0.000 HD
ATOM      6  H   UNL     1     -21.212  -3.538   6.422  0.00  0.00    +0.000 HD
BRANCH   4   7
ATOM      7  C   UNL     1     -20.450  -4.588   4.695  0.00  0.00    +0.000 C 
ATOM      8  H   UNL     1     -20.844  -4.326   3.707  0.00  0.00    +0.000 HD
ATOM      9  H   UNL     1     -21.060  -5.391   5.122  0.00  0.00    +0.000 HD
BRANCH   7  11
ATOM     10  O   UNL     1     -18.405  -5.109   3.478  0.00  0.00    +0.000 OA
ATOM     11  C   UNL     1     -19.042  -5.113   4.523  0.00  0.00    +0.000 C 
BRANCH  11  12
ATOM     12  O   UNL     1     -18.552  -5.610   5.689  0.00  0.00    +0.000 OA
ATOM     13  H   UNL     1     -18.483  -4.917   6.381  0.00  0.00    +0.000 HD
ENDBRANCH  11  12
ENDBRANCH   7  11
ENDBRANCH   4   7
ENDBRANCH   1   4
BRANCH   1  14
ATOM     14  C   UNL     1     -20.645  -0.779   5.667  0.00  0.00    +0.000 C 
ATOM     15  H   UNL     1     -21.522  -0.130   5.556  0.00  0.00    +0.000 HD
ATOM     16  H   UNL     1     -19.794  -0.239   5.235  0.00  0.00    +0.000 HD
BRANCH  14  17
ATOM     17  C   UNL     1     -20.387  -1.004   7.149  0.00  0.00    +0.000 C 
ATOM     18  H   UNL     1     -19.417  -1.488   7.297  0.00  0.00    +0.000 HD
ATOM     19  H   UNL     1     -20.381  -0.053   7.693  0.00  0.00    +0.000 HD
ATOM     20  H   UNL     1     -21.159  -1.644   7.586  0.00  0.00    +0.000 HD
ENDBRANCH  14  17
ENDBRANCH   1  14
TORSDOF 6
ENDMDL
MODEL 2
REMARK VINA RESULT:    -3.997     26.562     27.209
REMARK INTER + INTRA:          -5.314
REMARK INTER:                  -5.142
REMARK INTRA:                  -0.172
REMARK UNBOUND:                -0.148
REMARK  Name = 8892
REMARK  6 active torsions:
REMARK  status: ('A' for Active; 'I' for Inactive)
REMARK    1  A    between atoms: O_1  and  C_8
REMARK    2  A    between atoms: C_3  and  C_4
REMARK    3  A    between atoms: C_3  and  C_5
REMARK    4  A    between atoms: C_4  and  C_6
REMARK    5  A    between atoms: C_5  and  C_7
REMARK    6  A    between atoms: C_6  and  C_8
REMARK                            x       y       z     vdW  Elec       q    Type
REMARK                         _______ _______ _______ _____ _____    ______ ____
ROOT
ATOM      1  C   UNL     1      -2.737   8.836  -8.812  0.00  0.00    +0.000 C 
ATOM      2  H   UNL     1      -3.340   9.393  -8.083  0.00  0.00    +0.000 HD
ATOM      3  H   UNL     1      -1.738   8.730  -8.369  0.00  0.00    +0.000 HD
ENDROOT
BRANCH   1   4
ATOM      4  C   UNL     1      -2.615   9.671 -10.089  0.00  0.00    +0.000 C 
ATOM      5  H   UNL     1      -2.992   9.088 -10.939  0.00  0.00    +0.000 HD
ATOM      6  H   UNL     1      -3.268  10.548 -10.002  0.00  0.00    +0.000 HD
BRANCH   4   7
ATOM      7  C   UNL     1      -1.185  10.124 -10.386  0.00  0.00    +0.000 C 
ATOM      8  H   UNL     1      -0.487   9.607  -9.719  0.00  0.00    +0.000 HD
ATOM      9  H   UNL     1      -1.100  11.204 -10.226  0.00  0.00    +0.000 HD
BRANCH   7  11
ATOM     10  O   UNL     1      -0.797  10.636 -12.735  0.00  0.00    +0.000 OA
ATOM     11  C   UNL     1      -0.786   9.830 -11.815  0.00  0.00    +0.000 C 
BRANCH  11  12
ATOM     12  O   UNL     1      -0.410   8.533 -11.968  0.00  0.00    +0.000 OA
ATOM     13  H   UNL     1      -0.882   7.940 -11.344  0.00  0.00    +0.000 HD
ENDBRANCH  11  12
ENDBRANCH   7  11
ENDBRANCH   4   7
ENDBRANCH   1   4
BRANCH   1  14
ATOM     14  C   UNL     1      -3.340   7.441  -8.988  0.00  0.00    +0.000 C 
ATOM     15  H   UNL     1      -4.434   7.519  -9.001  0.00  0.00    +0.000 HD
ATOM     16  H   UNL     1      -3.076   6.822  -8.122  0.00  0.00    +0.000 HD
BRANCH  14  17
ATOM     17  C   UNL     1      -2.885   6.737 -10.256  0.00  0.00    +0.000 C 
ATOM     18  H   UNL     1      -2.789   7.455 -11.077  0.00  0.00    +0.000 HD
ATOM     19  H   UNL     1      -1.912   6.256 -10.109  0.00  0.00    +0.000 HD
ATOM     20  H   UNL     1      -3.605   5.970 -10.556  0.00  0.00    +0.000 HD
ENDBRANCH  14  17
ENDBRANCH   1  14
TORSDOF 6
ENDMDL
MODEL 3
REMARK VINA RESULT:    -3.845     25.894     26.487
REMARK INTER + INTRA:          -5.117
REMARK INTER:                  -4.929
REMARK INTRA:                  -0.188
REMARK UNBOUND:                -0.148
REMARK  Name = 8892
REMARK  6 active torsions:
REMARK  status: ('A' for Active; 'I' for Inactive)
REMARK    1  A    between atoms: O_1  and  C_8
REMARK    2  A    between atoms: C_3  and  C_4
REMARK    3  A    between atoms: C_3  and  C_5
REMARK    4  A    between atoms: C_4  and  C_6
REMARK    5  A    between atoms: C_5  and  C_7
REMARK    6  A    between atoms: C_6  and  C_8
REMARK                            x       y       z     vdW  Elec       q    Type
REMARK                         _______ _______ _______ _____ _____    ______ ____
ROOT
ATOM      1  C   UNL     1      -1.239  10.030 -10.458  0.00  0.00    +0.000 C 
ATOM      2  H   UNL     1      -0.555   9.381  -9.895  0.00  0.00    +0.000 HD
ATOM      3  H   UNL     1      -1.033  11.056 -10.128  0.00  0.00    +0.000 HD
ENDROOT
BRANCH   1   4
ATOM      4  C   UNL     1      -2.678   9.676 -10.075  0.00  0.00    +0.000 C 
ATOM      5  H   UNL     1      -3.213  10.593  -9.795  0.00  0.00    +0.000 HD
ATOM      6  H   UNL     1      -3.192   9.277 -10.958  0.00  0.00    +0.000 HD
BRANCH   4   7
ATOM      7  C   UNL     1      -2.773   8.670  -8.928  0.00  0.00    +0.000 C 
ATOM      8  H   UNL     1      -3.539   8.991  -8.214  0.00  0.00    +0.000 HD
ATOM      9  H   UNL     1      -1.808   8.607  -8.412  0.00  0.00    +0.000 HD
BRANCH   7  11
ATOM     10  O   UNL     1      -2.601   6.708 -10.360  0.00  0.00    +0.000 OA
ATOM     11  C   UNL     1      -3.130   7.286  -9.421  0.00  0.00    +0.000 C 
BRANCH  11  12
ATOM     12  O   UNL     1      -4.138   6.743  -8.687  0.00  0.00    +0.000 OA
ATOM     13  H   UNL     1      -4.960   7.277  -8.745  0.00  0.00    +0.000 HD
ENDBRANCH  11  12
ENDBRANCH   7  11
ENDBRANCH   4   7
ENDBRANCH   1   4
BRANCH   1  14
ATOM     14  C   UNL     1      -0.905   9.923 -11.947  0.00  0.00    +0.000 C 
ATOM     15  H   UNL     1      -0.183  10.705 -12.212  0.00  0.00    +0.000 HD
ATOM     16  H   UNL     1      -1.810  10.115 -12.536  0.00  0.00    +0.000 HD
BRANCH  14  17
ATOM     17  C   UNL     1      -0.332   8.573 -12.347  0.00  0.00    +0.000 C 
ATOM     18  H   UNL     1      -0.015   8.588 -13.394  0.00  0.00    +0.000 HD
ATOM     19  H   UNL     1       0.537   8.320 -11.731  0.00  0.00    +0.000 HD
ATOM     20  H   UNL     1      -1.079   7.782 -12.228  0.00  0.00    +0.000 HD
ENDBRANCH  14  17
ENDBRANCH   1  14
TORSDOF 6
ENDMDL
MODEL 4
REMARK VINA RESULT:    -3.843     27.718     28.246
REMARK INTER + INTRA:          -5.115
REMARK INTER:                  -5.054
REMARK INTRA:                  -0.061
REMARK UNBOUND:                -0.148
REMARK  Name = 8892
REMARK  6 active torsions:
REMARK  status: ('A' for Active; 'I' for Inactive)
REMARK    1  A    between atoms: O_1  and  C_8
REMARK    2  A    between atoms: C_3  and  C_4
REMARK    3  A    between atoms: C_3  and  C_5
REMARK    4  A    between atoms: C_4  and  C_6
REMARK    5  A    between atoms: C_5  and  C_7
REMARK    6  A    between atoms: C_6  and  C_8
REMARK                            x       y       z     vdW  Elec       q    Type
REMARK                         _______ _______ _______ _____ _____    ______ ____
ROOT
ATOM      1  C   UNL     1       5.198   8.597   2.358  0.00  0.00    +0.000 C 
ATOM      2  H   UNL     1       5.558   9.457   2.939  0.00  0.00    +0.000 HD
ATOM      3  H   UNL     1       6.024   8.304   1.697  0.00  0.00    +0.000 HD
ENDROOT
BRANCH   1   4
ATOM      4  C   UNL     1       4.020   9.048   1.492  0.00  0.00    +0.000 C 
ATOM      5  H   UNL     1       3.486   8.164   1.120  0.00  0.00    +0.000 HD
ATOM      6  H   UNL     1       3.308   9.597   2.121  0.00  0.00    +0.000 HD
BRANCH   4   7
ATOM      7  C   UNL     1       4.435   9.920   0.306  0.00  0.00    +0.000 C 
ATOM      8  H   UNL     1       3.890   9.608  -0.592  0.00  0.00    +0.000 HD
ATOM      9  H   UNL     1       5.510   9.813   0.129  0.00  0.00    +0.000 HD
BRANCH   7  11
ATOM     10  O   UNL     1       4.959  12.293   0.468  0.00  0.00    +0.000 OA
ATOM     11  C   UNL     1       4.146  11.383   0.555  0.00  0.00    +0.000 C 
BRANCH  11  12
ATOM     12  O   UNL     1       2.847  11.580   0.903  0.00  0.00    +0.000 OA
ATOM     13  H   UNL     1       2.486  10.822   1.411  0.00  0.00    +0.000 HD
ENDBRANCH  11  12
ENDBRANCH   7  11
ENDBRANCH   4   7
ENDBRANCH   1   4
BRANCH   1  14
ATOM     14  C   UNL     1       4.912   7.440   3.317  0.00  0.00    +0.000 C 
ATOM     15  H   UNL     1       4.575   6.569   2.742  0.00  0.00    +0.000 HD
ATOM     16  H   UNL     1       4.086   7.719   3.983  0.00  0.00    +0.000 HD
BRANCH  14  17
ATOM     17  C   UNL     1       6.112   7.037   4.159  0.00  0.00    +0.000 C 
ATOM     18  H   UNL     1       5.879   7.132   5.224  0.00  0.00    +0.000 HD
ATOM     19  H   UNL     1       6.395   5.997   3.963  0.00  0.00    +0.000 HD
ATOM     20  H   UNL     1       6.973   7.674   3.940  0.00  0.00    +0.000 HD
ENDBRANCH  14  17
ENDBRANCH   1  14
TORSDOF 6
ENDMDL
MODEL 5
REMARK VINA RESULT:    -3.707     20.543     21.347
REMARK INTER + INTRA:          -4.938
REMARK INTER:                  -4.771
REMARK INTRA:                  -0.168
REMARK UNBOUND:                -0.148
REMARK  Name = 8892
REMARK  6 active torsions:
REMARK  status: ('A' for Active; 'I' for Inactive)
REMARK    1  A    between atoms: O_1  and  C_8
REMARK    2  A    between atoms: C_3  and  C_4
REMARK    3  A    between atoms: C_3  and  C_5
REMARK    4  A    between atoms: C_4  and  C_6
REMARK    5  A    between atoms: C_5  and  C_7
REMARK    6  A    between atoms: C_6  and  C_8
REMARK                            x       y       z     vdW  Elec       q    Type
REMARK                         _______ _______ _______ _____ _____    ______ ____
ROOT
ATOM      1  C   UNL     1     -10.674   9.924  18.909  0.00  0.00    +0.000 C 
ATOM      2  H   UNL     1     -11.742  10.144  18.775  0.00  0.00    +0.000 HD
ATOM      3  H   UNL     1     -10.179  10.889  19.074  0.00  0.00    +0.000 HD
ENDROOT
BRANCH   1   4
ATOM      4  C   UNL     1     -10.132   9.314  17.615  0.00  0.00    +0.000 C 
ATOM      5  H   UNL     1      -9.616   8.373  17.847  0.00  0.00    +0.000 HD
ATOM      6  H   UNL     1     -10.976   9.051  16.966  0.00  0.00    +0.000 HD
BRANCH   4   7
ATOM      7  C   UNL     1      -9.175  10.238  16.861  0.00  0.00    +0.000 C 
ATOM      8  H   UNL     1      -9.310  11.270  17.203  0.00  0.00    +0.000 HD
ATOM      9  H   UNL     1      -9.381  10.187  15.787  0.00  0.00    +0.000 HD
BRANCH   7  11
ATOM     10  O   UNL     1      -6.768  10.597  16.956  0.00  0.00    +0.000 OA
ATOM     11  C   UNL     1      -7.729   9.850  17.078  0.00  0.00    +0.000 C 
BRANCH  11  12
ATOM     12  O   UNL     1      -7.614   8.542  17.426  0.00  0.00    +0.000 OA
ATOM     13  H   UNL     1      -7.329   8.435  18.359  0.00  0.00    +0.000 HD
ENDBRANCH  11  12
ENDBRANCH   7  11
ENDBRANCH   4   7
ENDBRANCH   1   4
BRANCH   1  14
ATOM     14  C   UNL     1     -10.503   9.070  20.167  0.00  0.00    +0.000 C 
ATOM     15  H   UNL     1     -11.491   8.842  20.587  0.00  0.00    +0.000 HD
ATOM     16  H   UNL     1      -9.962   9.648  20.926  0.00  0.00    +0.000 HD
BRANCH  14  17
ATOM     17  C   UNL     1      -9.764   7.764  19.920  0.00  0.00    +0.000 C 
ATOM     18  H   UNL     1      -9.062   7.563  20.736  0.00  0.00    +0.000 HD
ATOM     19  H   UNL     1     -10.464   6.925  19.857  0.00  0.00    +0.000 HD
ATOM     20  H   UNL     1      -9.197   7.809  18.985  0.00  0.00    +0.000 HD
ENDBRANCH  14  17
ENDBRANCH   1  14
TORSDOF 6
ENDMDL
MODEL 6
REMARK VINA RESULT:    -3.689     25.281     25.804
REMARK INTER + INTRA:          -4.915
REMARK INTER:                  -4.714
REMARK INTRA:                  -0.201
REMARK UNBOUND:                -0.148
REMARK  Name = 8892
REMARK  6 active torsions:
REMARK  status: ('A' for Active; 'I' for Inactive)
REMARK    1  A    between atoms: O_1  and  C_8
REMARK    2  A    between atoms: C_3  and  C_4
REMARK    3  A    between atoms: C_3  and  C_5
REMARK    4  A    between atoms: C_4  and  C_6
REMARK    5  A    between atoms: C_5  and  C_7
REMARK    6  A    between atoms: C_6  and  C_8
REMARK                            x       y       z     vdW  Elec       q    Type
REMARK                         _______ _______ _______ _____ _____    ______ ____
ROOT
ATOM      1  C   UNL     1      -3.249   9.023 -11.596  0.00  0.00    +0.000 C 
ATOM      2  H   UNL     1      -3.597   9.501 -10.671  0.00  0.00    +0.000 HD
ATOM      3  H   UNL     1      -3.841   9.461 -12.411  0.00  0.00    +0.000 HD
ENDROOT
BRANCH   1   4
ATOM      4  C   UNL     1      -3.559   7.525 -11.522  0.00  0.00    +0.000 C 
ATOM      5  H   UNL     1      -4.637   7.387 -11.375  0.00  0.00    +0.000 HD
ATOM      6  H   UNL     1      -3.318   7.066 -12.489  0.00  0.00    +0.000 HD
BRANCH   4   7
ATOM      7  C   UNL     1      -2.802   6.802 -10.408  0.00  0.00    +0.000 C 
ATOM      8  H   UNL     1      -1.774   7.177 -10.354  0.00  0.00    +0.000 HD
ATOM      9  H   UNL     1      -2.781   5.727 -10.614  0.00  0.00    +0.000 HD
BRANCH   7  11
ATOM     10  O   UNL     1      -4.418   6.384  -8.634  0.00  0.00    +0.000 OA
ATOM     11  C   UNL     1      -3.455   7.007  -9.059  0.00  0.00    +0.000 C 
BRANCH  11  12
ATOM     12  O   UNL     1      -2.840   7.994  -8.355  0.00  0.00    +0.000 OA
ATOM     13  H   UNL     1      -2.806   8.835  -8.859  0.00  0.00    +0.000 HD
ENDBRANCH  11  12
ENDBRANCH   7  11
ENDBRANCH   4   7
ENDBRANCH   1   4
BRANCH   1  14
ATOM     14  C   UNL     1      -1.779   9.386 -11.816  0.00  0.00    +0.000 C 
ATOM     15  H   UNL     1      -1.691  10.009 -12.714  0.00  0.00    +0.000 HD
ATOM     16  H   UNL     1      -1.205   8.471 -12.007  0.00  0.00    +0.000 HD
BRANCH  14  17
ATOM     17  C   UNL     1      -1.154  10.125 -10.643  0.00  0.00    +0.000 C 
ATOM     18  H   UNL     1      -1.704  11.050 -10.439  0.00  0.00    +0.000 HD
ATOM     19  H   UNL     1      -1.174   9.510  -9.738  0.00  0.00    +0.000 HD
ATOM     20  H   UNL     1      -0.114  10.388 -10.858  0.00  0.00    +0.000 HD
ENDBRANCH  14  17
ENDBRANCH   1  14
TORSDOF 6
ENDMDL
MODEL 7
REMARK VINA RESULT:    -3.592     17.761     18.402
REMARK INTER + INTRA:          -4.790
REMARK INTER:                  -4.553
REMARK INTRA:                  -0.237
REMARK UNBOUND:                -0.148
REMARK  Name = 8892
REMARK  6 active torsions:
REMARK  status: ('A' for Active; 'I' for Inactive)
REMARK    1  A    between atoms: O_1  and  C_8
REMARK    2  A    between atoms: C_3  and  C_4
REMARK    3  A    between atoms: C_3  and  C_5
REMARK    4  A    between atoms: C_4  and  C_6
REMARK    5  A    between atoms: C_5  and  C_7
REMARK    6  A    between atoms: C_6  and  C_8
REMARK                            x       y       z     vdW  Elec       q    Type
REMARK                         _______ _______ _______ _____ _____    ______ ____
ROOT
ATOM      1  C   UNL     1      -9.102   3.995  -7.060  0.00  0.00    +0.000 C 
ATOM      2  H   UNL     1      -8.889   3.156  -7.736  0.00  0.00    +0.000 HD
ATOM      3  H   UNL     1      -9.807   4.647  -7.592  0.00  0.00    +0.000 HD
ENDROOT
BRANCH   1   4
ATOM      4  C   UNL     1      -7.807   4.773  -6.819  0.00  0.00    +0.000 C 
ATOM      5  H   UNL     1      -7.401   4.504  -5.835  0.00  0.00    +0.000 HD
ATOM      6  H   UNL     1      -7.060   4.456  -7.557  0.00  0.00    +0.000 HD
BRANCH   4   7
ATOM      7  C   UNL     1      -7.987   6.290  -6.891  0.00  0.00    +0.000 C 
ATOM      8  H   UNL     1      -8.678   6.543  -7.701  0.00  0.00    +0.000 HD
ATOM      9  H   UNL     1      -7.020   6.767  -7.082  0.00  0.00    +0.000 HD
BRANCH   7  11
ATOM     10  O   UNL     1      -9.610   7.430  -5.477  0.00  0.00    +0.000 OA
ATOM     11  C   UNL     1      -8.538   6.853  -5.600  0.00  0.00    +0.000 C 
BRANCH  11  12
ATOM     12  O   UNL     1      -7.682   6.649  -4.564  0.00  0.00    +0.000 OA
ATOM     13  H   UNL     1      -6.812   7.077  -4.719  0.00  0.00    +0.000 HD
ENDBRANCH  11  12
ENDBRANCH   7  11
ENDBRANCH   4   7
ENDBRANCH   1   4
BRANCH   1  14
ATOM     14  C   UNL     1      -9.794   3.453  -5.807  0.00  0.00    +0.000 C 
ATOM     15  H   UNL     1     -10.233   2.474  -6.031  0.00  0.00    +0.000 HD
ATOM     16  H   UNL     1     -10.623   4.118  -5.536  0.00  0.00    +0.000 HD
BRANCH  14  17
ATOM     17  C   UNL     1      -8.863   3.311  -4.613  0.00  0.00    +0.000 C 
ATOM     18  H   UNL     1      -8.328   2.357  -4.660  0.00  0.00    +0.000 HD
ATOM     19  H   UNL     1      -8.123   4.117  -4.596  0.00  0.00    +0.000 HD
ATOM     20  H   UNL     1      -9.425   3.341  -3.675  0.00  0.00    +0.000 HD
ENDBRANCH  14  17
ENDBRANCH   1  14
TORSDOF 6
ENDMDL
MODEL 8
REMARK VINA RESULT:    -3.573     32.915     33.920
REMARK INTER + INTRA:          -4.766
REMARK INTER:                  -4.618
REMARK INTRA:                  -0.148
REMARK UNBOUND:                -0.148
REMARK  Name = 8892
REMARK  6 active torsions:
REMARK  status: ('A' for Active; 'I' for Inactive)
REMARK    1  A    between atoms: O_1  and  C_8
REMARK    2  A    between atoms: C_3  and  C_4
REMARK    3  A    between atoms: C_3  and  C_5
REMARK    4  A    between atoms: C_4  and  C_6
REMARK    5  A    between atoms: C_5  and  C_7
REMARK    6  A    between atoms: C_6  and  C_8
REMARK                            x       y       z     vdW  Elec       q    Type
REMARK                         _______ _______ _______ _____ _____    ______ ____
ROOT
ATOM      1  C   UNL     1      12.251  -4.211   6.790  0.00  0.00    +0.000 C 
ATOM      2  H   UNL     1      11.695  -4.373   5.857  0.00  0.00    +0.000 HD
ATOM      3  H   UNL     1      11.567  -3.687   7.470  0.00  0.00    +0.000 HD
ENDROOT
BRANCH   1   4
ATOM      4  C   UNL     1      13.443  -3.295   6.499  0.00  0.00    +0.000 C 
ATOM      5  H   UNL     1      13.349  -2.892   5.483  0.00  0.00    +0.000 HD
ATOM      6  H   UNL     1      13.401  -2.434   7.178  0.00  0.00    +0.000 HD
BRANCH   4   7
ATOM      7  C   UNL     1      14.796  -3.994   6.639  0.00  0.00    +0.000 C 
ATOM      8  H   UNL     1      14.675  -4.927   7.201  0.00  0.00    +0.000 HD
ATOM      9  H   UNL     1      15.494  -3.342   7.174  0.00  0.00    +0.000 HD
BRANCH   7  11
ATOM     10  O   UNL     1      15.420  -5.432   4.775  0.00  0.00    +0.000 OA
ATOM     11  C   UNL     1      15.402  -4.324   5.294  0.00  0.00    +0.000 C 
BRANCH  11  12
ATOM     12  O   UNL     1      15.945  -3.222   4.712  0.00  0.00    +0.000 OA
ATOM     13  H   UNL     1      15.258  -2.637   4.325  0.00  0.00    +0.000 HD
ENDBRANCH  11  12
ENDBRANCH   7  11
ENDBRANCH   4   7
ENDBRANCH   1   4
BRANCH   1  14
ATOM     14  C   UNL     1      12.594  -5.572   7.401  0.00  0.00    +0.000 C 
ATOM     15  H   UNL     1      13.381  -5.442   8.154  0.00  0.00    +0.000 HD
ATOM     16  H   UNL     1      13.007  -6.224   6.621  0.00  0.00    +0.000 HD
BRANCH  14  17
ATOM     17  C   UNL     1      11.406  -6.264   8.049  0.00  0.00    +0.000 C 
ATOM     18  H   UNL     1      11.086  -5.716   8.941  0.00  0.00    +0.000 HD
ATOM     19  H   UNL     1      10.559  -6.315   7.357  0.00  0.00    +0.000 HD
ATOM     20  H   UNL     1      11.665  -7.283   8.349  0.00  0.00    +0.000 HD
ENDBRANCH  14  17
ENDBRANCH   1  14
TORSDOF 6
ENDMDL
MODEL 9
REMARK VINA RESULT:    -3.556     24.450     25.017
REMARK INTER + INTRA:          -4.743
REMARK INTER:                  -4.518
REMARK INTRA:                  -0.225
REMARK UNBOUND:                -0.148
REMARK  Name = 8892
REMARK  6 active torsions:
REMARK  status: ('A' for Active; 'I' for Inactive)
REMARK    1  A    between atoms: O_1  and  C_8
REMARK    2  A    between atoms: C_3  and  C_4
REMARK    3  A    between atoms: C_3  and  C_5
REMARK    4  A    between atoms: C_4  and  C_6
REMARK    5  A    between atoms: C_5  and  C_7
REMARK    6  A    between atoms: C_6  and  C_8
REMARK                            x       y       z     vdW  Elec       q    Type
REMARK                         _______ _______ _______ _____ _____    ______ ____
ROOT
ATOM      1  C   UNL     1      -4.417   6.761 -11.308  0.00  0.00    +0.000 C 
ATOM      2  H   UNL     1      -4.366   6.104 -12.187  0.00  0.00    +0.000 HD
ATOM      3  H   UNL     1      -4.536   7.782 -11.694  0.00  0.00    +0.000 HD
ENDROOT
BRANCH   1   4
ATOM      4  C   UNL     1      -3.086   6.679 -10.556  0.00  0.00    +0.000 C 
ATOM      5  H   UNL     1      -3.278   6.386  -9.516  0.00  0.00    +0.000 HD
ATOM      6  H   UNL     1      -2.481   5.877 -10.996  0.00  0.00    +0.000 HD
BRANCH   4   7
ATOM      7  C   UNL     1      -2.296   7.987 -10.573  0.00  0.00    +0.000 C 
ATOM      8  H   UNL     1      -2.457   8.506 -11.525  0.00  0.00    +0.000 HD
ATOM      9  H   UNL     1      -1.228   7.775 -10.457  0.00  0.00    +0.000 HD
BRANCH   7  11
ATOM     10  O   UNL     1      -2.974  10.101  -9.570  0.00  0.00    +0.000 OA
ATOM     11  C   UNL     1      -2.713   8.912  -9.451  0.00  0.00    +0.000 C 
BRANCH  11  12
ATOM     12  O   UNL     1      -2.758   8.257  -8.260  0.00  0.00    +0.000 OA
ATOM     13  H   UNL     1      -2.353   8.784  -7.538  0.00  0.00    +0.000 HD
ENDBRANCH  11  12
ENDBRANCH   7  11
ENDBRANCH   4   7
ENDBRANCH   1   4
BRANCH   1  14
ATOM     14  C   UNL     1      -5.662   6.402 -10.495  0.00  0.00    +0.000 C 
ATOM     15  H   UNL     1      -6.154   5.534 -10.952  0.00  0.00    +0.000 HD
ATOM     16  H   UNL     1      -6.377   7.233 -10.542  0.00  0.00    +0.000 HD
BRANCH  14  17
ATOM     17  C   UNL     1      -5.366   6.085  -9.038  0.00  0.00    +0.000 C 
ATOM     18  H   UNL     1      -6.275   6.177  -8.436  0.00  0.00    +0.000 HD
ATOM     19  H   UNL     1      -4.987   5.063  -8.930  0.00  0.00    +0.000 HD
ATOM     20  H   UNL     1      -4.617   6.773  -8.634  0.00  0.00    +0.000 HD
ENDBRANCH  14  17
ENDBRANCH   1  14
TORSDOF 6
ENDMDL
MODEL 10
REMARK VINA RESULT:    -3.544     26.183     27.305
REMARK INTER + INTRA:          -4.729
REMARK INTER:                  -4.622
REMARK INTRA:                  -0.106
REMARK UNBOUND:                -0.148
REMARK  Name = 8892
REMARK  6 active torsions:
REMARK  status: ('A' for Active; 'I' for Inactive)
REMARK    1  A    between atoms: O_1  and  C_8
REMARK    2  A    between atoms: C_3  and  C_4
REMARK    3  A    between atoms: C_3  and  C_5
REMARK    4  A    between atoms: C_4  and  C_6
REMARK    5  A    between atoms: C_5  and  C_7
REMARK    6  A    between atoms: C_6  and  C_8
REMARK                            x       y       z     vdW  Elec       q    Type
REMARK                         _______ _______ _______ _____ _____    ______ ____
ROOT
ATOM      1  C   UNL     1      -1.313  -0.297 -12.726  0.00  0.00    +0.000 C 
ATOM      2  H   UNL     1      -1.355  -1.187 -13.368  0.00  0.00    +0.000 HD
ATOM      3  H   UNL     1      -1.513   0.563 -13.378  0.00  0.00    +0.000 HD
ENDROOT
BRANCH   1   4
ATOM      4  C   UNL     1       0.106  -0.161 -12.167  0.00  0.00    +0.000 C 
ATOM      5  H   UNL     1       0.057  -0.088 -11.073  0.00  0.00    +0.000 HD
ATOM      6  H   UNL     1       0.663  -1.079 -12.390  0.00  0.00    +0.000 HD
BRANCH   4   7
ATOM      7  C   UNL     1       0.864   1.047 -12.718  0.00  0.00    +0.000 C 
ATOM      8  H   UNL     1       1.181   1.694 -11.892  0.00  0.00    +0.000 HD
ATOM      9  H   UNL     1       0.212   1.616 -13.389  0.00  0.00    +0.000 HD
BRANCH   7  11
ATOM     10  O   UNL     1       2.684  -0.430 -13.378  0.00  0.00    +0.000 OA
ATOM     11  C   UNL     1       2.092   0.633 -13.498  0.00  0.00    +0.000 C 
BRANCH  11  12
ATOM     12  O   UNL     1       2.479   1.605 -14.365  0.00  0.00    +0.000 OA
ATOM     13  H   UNL     1       1.850   1.699 -15.112  0.00  0.00    +0.000 HD
ENDBRANCH  11  12
ENDBRANCH   7  11
ENDBRANCH   4   7
ENDBRANCH   1   4
BRANCH   1  14
ATOM     14  C   UNL     1      -2.430  -0.387 -11.685  0.00  0.00    +0.000 C 
ATOM     15  H   UNL     1      -3.073  -1.244 -11.918  0.00  0.00    +0.000 HD
ATOM     16  H   UNL     1      -3.060   0.509 -11.752  0.00  0.00    +0.000 HD
BRANCH  14  17
ATOM     17  C   UNL     1      -1.922  -0.528 -10.259  0.00  0.00    +0.000 C 
ATOM     18  H   UNL     1      -1.679   0.454  -9.842  0.00  0.00    +0.000 HD
ATOM     19  H   UNL     1      -2.680  -0.993  -9.619  0.00  0.00    +0.000 HD
ATOM     20  H   UNL     1      -1.020  -1.146 -10.226  0.00  0.00    +0.000 HD
ENDBRANCH  14  17
ENDBRANCH   1  14
TORSDOF 6
ENDMDL
