MODEL 1
REMARK VINA RESULT:    -5.617      0.000      0.000
REMARK INTER + INTRA:          -5.617
REMARK INTER:                  -5.617
REMARK INTRA:                   0.000
REMARK UNBOUND:                 0.000
REMARK  Name = 798
REMARK  0 active torsions:
REMARK  status: ('A' for Active; 'I' for Inactive)
REMARK                            x       y       z     vdW  Elec       q    Type
REMARK                         _______ _______ _______ _____ _____    ______ ____
ROOT
ATOM      1  N   UNL     1      -1.115   8.211 -12.218  0.00  0.00    +0.000 N 
ATOM      2  C   UNL     1      -1.855   8.026 -11.072  0.00  0.00    +0.000 A 
ATOM      3  C   UNL     1      -1.809   9.224 -10.354  0.00  0.00    +0.000 A 
ATOM      4  C   UNL     1      -1.016  10.132 -11.110  0.00  0.00    +0.000 A 
ATOM      5  C   UNL     1      -2.555   6.902 -10.620  0.00  0.00    +0.000 A 
ATOM      6  C   UNL     1      -2.494   9.305  -9.126  0.00  0.00    +0.000 A 
ATOM      7  C   UNL     1      -0.604   9.481 -12.250  0.00  0.00    +0.000 A 
ATOM      8  C   UNL     1      -3.227   7.006  -9.399  0.00  0.00    +0.000 A 
ATOM      9  C   UNL     1      -3.198   8.188  -8.661  0.00  0.00    +0.000 A 
ATOM     10  H   UNL     1      -0.970   7.511 -12.932  0.00  0.00    +0.000 HD
ATOM     11  H   UNL     1      -0.773  11.153 -10.849  0.00  0.00    +0.000 HD
ATOM     12  H   UNL     1      -2.578   5.981 -11.193  0.00  0.00    +0.000 HD
ATOM     13  H   UNL     1      -2.480  10.220  -8.542  0.00  0.00    +0.000 HD
ATOM     14  H   UNL     1       0.007   9.808 -13.079  0.00  0.00    +0.000 HD
ATOM     15  H   UNL     1      -3.780   6.150  -9.019  0.00  0.00    +0.000 HD
ATOM     16  H   UNL     1      -3.729   8.245  -7.715  0.00  0.00    +0.000 HD
ENDROOT
TORSDOF 0
ENDMDL
MODEL 2
REMARK VINA RESULT:    -5.518      1.012      2.117
REMARK INTER + INTRA:          -5.518
REMARK INTER:                  -5.518
REMARK INTRA:                   0.000
REMARK UNBOUND:                 0.000
REMARK  Name = 798
REMARK  0 active torsions:
REMARK  status: ('A' for Active; 'I' for Inactive)
REMARK                            x       y       z     vdW  Elec       q    Type
REMARK                         _______ _______ _______ _____ _____    ______ ____
ROOT
ATOM      1  N   UNL     1      -1.045   8.950 -12.061  0.00  0.00    +0.000 N 
ATOM      2  C   UNL     1      -1.771   8.669 -10.926  0.00  0.00    +0.000 A 
ATOM      3  C   UNL     1      -2.220   7.351 -11.039  0.00  0.00    +0.000 A 
ATOM      4  C   UNL     1      -1.738   6.852 -12.282  0.00  0.00    +0.000 A 
ATOM      5  C   UNL     1      -2.062   9.472  -9.818  0.00  0.00    +0.000 A 
ATOM      6  C   UNL     1      -2.996   6.807  -9.997  0.00  0.00    +0.000 A 
ATOM      7  C   UNL     1      -1.020   7.858 -12.887  0.00  0.00    +0.000 A 
ATOM      8  C   UNL     1      -2.833   8.911  -8.797  0.00  0.00    +0.000 A 
ATOM      9  C   UNL     1      -3.295   7.599  -8.883  0.00  0.00    +0.000 A 
ATOM     10  H   UNL     1      -0.597   9.834 -12.257  0.00  0.00    +0.000 HD
ATOM     11  H   UNL     1      -1.899   5.865 -12.691  0.00  0.00    +0.000 HD
ATOM     12  H   UNL     1      -1.703  10.494  -9.748  0.00  0.00    +0.000 HD
ATOM     13  H   UNL     1      -3.362   5.786 -10.053  0.00  0.00    +0.000 HD
ATOM     14  H   UNL     1      -0.494   7.894 -13.831  0.00  0.00    +0.000 HD
ATOM     15  H   UNL     1      -3.077   9.509  -7.921  0.00  0.00    +0.000 HD
ATOM     16  H   UNL     1      -3.894   7.185  -8.076  0.00  0.00    +0.000 HD
ENDROOT
TORSDOF 0
ENDMDL
MODEL 3
REMARK VINA RESULT:    -5.071      1.322      3.134
REMARK INTER + INTRA:          -5.071
REMARK INTER:                  -5.071
REMARK INTRA:                   0.000
REMARK UNBOUND:                 0.000
REMARK  Name = 798
REMARK  0 active torsions:
REMARK  status: ('A' for Active; 'I' for Inactive)
REMARK                            x       y       z     vdW  Elec       q    Type
REMARK                         _______ _______ _______ _____ _____    ______ ____
ROOT
ATOM      1  N   UNL     1      -2.867   6.808  -9.801  0.00  0.00    +0.000 N 
ATOM      2  C   UNL     1      -2.094   7.574 -10.643  0.00  0.00    +0.000 A 
ATOM      3  C   UNL     1      -2.061   8.866 -10.110  0.00  0.00    +0.000 A 
ATOM      4  C   UNL     1      -2.841   8.845  -8.920  0.00  0.00    +0.000 A 
ATOM      5  C   UNL     1      -1.427   7.228 -11.823  0.00  0.00    +0.000 A 
ATOM      6  C   UNL     1      -1.328   9.860 -10.787  0.00  0.00    +0.000 A 
ATOM      7  C   UNL     1      -3.323   7.567  -8.757  0.00  0.00    +0.000 A 
ATOM      8  C   UNL     1      -0.707   8.231 -12.477  0.00  0.00    +0.000 A 
ATOM      9  C   UNL     1      -0.656   9.528 -11.969  0.00  0.00    +0.000 A 
ATOM     10  H   UNL     1      -3.069   5.826  -9.934  0.00  0.00    +0.000 HD
ATOM     11  H   UNL     1      -3.030   9.675  -8.254  0.00  0.00    +0.000 HD
ATOM     12  H   UNL     1      -1.465   6.219 -12.221  0.00  0.00    +0.000 HD
ATOM     13  H   UNL     1      -1.281  10.874 -10.402  0.00  0.00    +0.000 HD
ATOM     14  H   UNL     1      -3.950   7.131  -7.991  0.00  0.00    +0.000 HD
ATOM     15  H   UNL     1      -0.177   7.995 -13.397  0.00  0.00    +0.000 HD
ATOM     16  H   UNL     1      -0.089  10.291 -12.496  0.00  0.00    +0.000 HD
ENDROOT
TORSDOF 0
ENDMDL
MODEL 4
REMARK VINA RESULT:    -5.001     12.429     13.100
REMARK INTER + INTRA:          -5.001
REMARK INTER:                  -5.001
REMARK INTRA:                   0.000
REMARK UNBOUND:                 0.000
REMARK  Name = 798
REMARK  0 active torsions:
REMARK  status: ('A' for Active; 'I' for Inactive)
REMARK                            x       y       z     vdW  Elec       q    Type
REMARK                         _______ _______ _______ _____ _____    ______ ____
ROOT
ATOM      1  N   UNL     1       6.505  11.215  -1.607  0.00  0.00    +0.000 N 
ATOM      2  C   UNL     1       5.547  10.874  -0.679  0.00  0.00    +0.000 A 
ATOM      3  C   UNL     1       6.084   9.854   0.111  0.00  0.00    +0.000 A 
ATOM      4  C   UNL     1       7.396   9.596  -0.377  0.00  0.00    +0.000 A 
ATOM      5  C   UNL     1       4.260  11.384  -0.479  0.00  0.00    +0.000 A 
ATOM      6  C   UNL     1       5.299   9.317   1.150  0.00  0.00    +0.000 A 
ATOM      7  C   UNL     1       7.625  10.448  -1.433  0.00  0.00    +0.000 A 
ATOM      8  C   UNL     1       3.500  10.836   0.558  0.00  0.00    +0.000 A 
ATOM      9  C   UNL     1       4.010   9.817   1.362  0.00  0.00    +0.000 A 
ATOM     10  H   UNL     1       6.395  11.928  -2.315  0.00  0.00    +0.000 HD
ATOM     11  H   UNL     1       8.097   8.866   0.002  0.00  0.00    +0.000 HD
ATOM     12  H   UNL     1       3.861  12.177  -1.103  0.00  0.00    +0.000 HD
ATOM     13  H   UNL     1       5.685   8.523   1.783  0.00  0.00    +0.000 HD
ATOM     14  H   UNL     1       8.486  10.577  -2.075  0.00  0.00    +0.000 HD
ATOM     15  H   UNL     1       2.496  11.210   0.740  0.00  0.00    +0.000 HD
ATOM     16  H   UNL     1       3.400   9.407   2.162  0.00  0.00    +0.000 HD
ENDROOT
TORSDOF 0
ENDMDL
MODEL 5
REMARK VINA RESULT:    -4.804     17.050     18.835
REMARK INTER + INTRA:          -4.804
REMARK INTER:                  -4.804
REMARK INTRA:                   0.000
REMARK UNBOUND:                 0.000
REMARK  Name = 798
REMARK  0 active torsions:
REMARK  status: ('A' for Active; 'I' for Inactive)
REMARK                            x       y       z     vdW  Elec       q    Type
REMARK                         _______ _______ _______ _____ _____    ______ ____
ROOT
ATOM      1  N   UNL     1      -8.360  11.745   8.534  0.00  0.00    +0.000 N 
ATOM      2  C   UNL     1      -7.878  12.031   7.277  0.00  0.00    +0.000 A 
ATOM      3  C   UNL     1      -8.306  11.006   6.429  0.00  0.00    +0.000 A 
ATOM      4  C   UNL     1      -9.059  10.096   7.223  0.00  0.00    +0.000 A 
ATOM      5  C   UNL     1      -7.105  13.108   6.828  0.00  0.00    +0.000 A 
ATOM      6  C   UNL     1      -7.945  11.056   5.068  0.00  0.00    +0.000 A 
ATOM      7  C   UNL     1      -9.075  10.578   8.512  0.00  0.00    +0.000 A 
ATOM      8  C   UNL     1      -6.760  13.136   5.474  0.00  0.00    +0.000 A 
ATOM      9  C   UNL     1      -7.172  12.127   4.605  0.00  0.00    +0.000 A 
ATOM     10  H   UNL     1      -8.207  12.315   9.355  0.00  0.00    +0.000 HD
ATOM     11  H   UNL     1      -9.539   9.187   6.888  0.00  0.00    +0.000 HD
ATOM     12  H   UNL     1      -6.783  13.894   7.502  0.00  0.00    +0.000 HD
ATOM     13  H   UNL     1      -8.259  10.276   4.381  0.00  0.00    +0.000 HD
ATOM     14  H   UNL     1      -9.530  10.194   9.413  0.00  0.00    +0.000 HD
ATOM     15  H   UNL     1      -6.159  13.959   5.093  0.00  0.00    +0.000 HD
ATOM     16  H   UNL     1      -6.890  12.171   3.557  0.00  0.00    +0.000 HD
ENDROOT
TORSDOF 0
ENDMDL
MODEL 6
REMARK VINA RESULT:    -4.779     13.398     14.120
REMARK INTER + INTRA:          -4.779
REMARK INTER:                  -4.779
REMARK INTRA:                   0.000
REMARK UNBOUND:                 0.000
REMARK  Name = 798
REMARK  0 active torsions:
REMARK  status: ('A' for Active; 'I' for Inactive)
REMARK                            x       y       z     vdW  Elec       q    Type
REMARK                         _______ _______ _______ _____ _____    ______ ____
ROOT
ATOM      1  N   UNL     1       5.721  10.187   0.071  0.00  0.00    +0.000 N 
ATOM      2  C   UNL     1       5.627   9.259   1.083  0.00  0.00    +0.000 A 
ATOM      3  C   UNL     1       4.381   9.438   1.690  0.00  0.00    +0.000 A 
ATOM      4  C   UNL     1       3.733  10.504   1.005  0.00  0.00    +0.000 A 
ATOM      5  C   UNL     1       6.539   8.286   1.505  0.00  0.00    +0.000 A 
ATOM      6  C   UNL     1       4.027   8.605   2.770  0.00  0.00    +0.000 A 
ATOM      7  C   UNL     1       4.582  10.943   0.015  0.00  0.00    +0.000 A 
ATOM      8  C   UNL     1       6.166   7.472   2.578  0.00  0.00    +0.000 A 
ATOM      9  C   UNL     1       4.929   7.627   3.203  0.00  0.00    +0.000 A 
ATOM     10  H   UNL     1       6.517  10.293  -0.543  0.00  0.00    +0.000 HD
ATOM     11  H   UNL     1       2.752  10.907   1.213  0.00  0.00    +0.000 HD
ATOM     12  H   UNL     1       7.502   8.163   1.021  0.00  0.00    +0.000 HD
ATOM     13  H   UNL     1       3.067   8.716   3.264  0.00  0.00    +0.000 HD
ATOM     14  H   UNL     1       4.476  11.726  -0.723  0.00  0.00    +0.000 HD
ATOM     15  H   UNL     1       6.852   6.705   2.931  0.00  0.00    +0.000 HD
ATOM     16  H   UNL     1       4.662   6.982   4.035  0.00  0.00    +0.000 HD
ENDROOT
TORSDOF 0
ENDMDL
MODEL 7
REMARK VINA RESULT:    -4.753      8.757     10.076
REMARK INTER + INTRA:          -4.753
REMARK INTER:                  -4.753
REMARK INTRA:                   0.000
REMARK UNBOUND:                 0.000
REMARK  Name = 798
REMARK  0 active torsions:
REMARK  status: ('A' for Active; 'I' for Inactive)
REMARK                            x       y       z     vdW  Elec       q    Type
REMARK                         _______ _______ _______ _____ _____    ______ ____
ROOT
ATOM      1  N   UNL     1      -7.863   4.801  -4.987  0.00  0.00    +0.000 N 
ATOM      2  C   UNL     1      -8.836   5.737  -5.254  0.00  0.00    +0.000 A 
ATOM      3  C   UNL     1     -10.063   5.069  -5.249  0.00  0.00    +0.000 A 
ATOM      4  C   UNL     1      -9.791   3.700  -4.971  0.00  0.00    +0.000 A 
ATOM      5  C   UNL     1      -8.726   7.111  -5.497  0.00  0.00    +0.000 A 
ATOM      6  C   UNL     1     -11.237   5.806  -5.499  0.00  0.00    +0.000 A 
ATOM      7  C   UNL     1      -8.430   3.567  -4.815  0.00  0.00    +0.000 A 
ATOM      8  C   UNL     1      -9.904   7.821  -5.741  0.00  0.00    +0.000 A 
ATOM      9  C   UNL     1     -11.143   7.180  -5.743  0.00  0.00    +0.000 A 
ATOM     10  H   UNL     1      -6.873   4.996  -4.928  0.00  0.00    +0.000 HD
ATOM     11  H   UNL     1     -10.512   2.898  -4.892  0.00  0.00    +0.000 HD
ATOM     12  H   UNL     1      -7.763   7.611  -5.496  0.00  0.00    +0.000 HD
ATOM     13  H   UNL     1     -12.208   5.319  -5.503  0.00  0.00    +0.000 HD
ATOM     14  H   UNL     1      -7.816   2.704  -4.596  0.00  0.00    +0.000 HD
ATOM     15  H   UNL     1      -9.854   8.890  -5.934  0.00  0.00    +0.000 HD
ATOM     16  H   UNL     1     -12.045   7.754  -5.936  0.00  0.00    +0.000 HD
ENDROOT
TORSDOF 0
ENDMDL
MODEL 8
REMARK VINA RESULT:    -4.751      9.269     10.082
REMARK INTER + INTRA:          -4.751
REMARK INTER:                  -4.751
REMARK INTRA:                   0.000
REMARK UNBOUND:                 0.000
REMARK  Name = 798
REMARK  0 active torsions:
REMARK  status: ('A' for Active; 'I' for Inactive)
REMARK                            x       y       z     vdW  Elec       q    Type
REMARK                         _______ _______ _______ _____ _____    ______ ____
ROOT
ATOM      1  N   UNL     1     -11.724   6.580  -5.925  0.00  0.00    +0.000 N 
ATOM      2  C   UNL     1     -10.681   5.754  -5.570  0.00  0.00    +0.000 A 
ATOM      3  C   UNL     1      -9.561   6.566  -5.373  0.00  0.00    +0.000 A 
ATOM      4  C   UNL     1      -9.970   7.907  -5.623  0.00  0.00    +0.000 A 
ATOM      5  C   UNL     1     -10.642   4.365  -5.410  0.00  0.00    +0.000 A 
ATOM      6  C   UNL     1      -8.344   5.965  -4.999  0.00  0.00    +0.000 A 
ATOM      7  C   UNL     1     -11.305   7.882  -5.959  0.00  0.00    +0.000 A 
ATOM      8  C   UNL     1      -9.424   3.790  -5.038  0.00  0.00    +0.000 A 
ATOM      9  C   UNL     1      -8.291   4.576  -4.835  0.00  0.00    +0.000 A 
ATOM     10  H   UNL     1     -12.664   6.268  -6.130  0.00  0.00    +0.000 HD
ATOM     11  H   UNL     1      -9.356   8.794  -5.563  0.00  0.00    +0.000 HD
ATOM     12  H   UNL     1     -11.523   3.751  -5.567  0.00  0.00    +0.000 HD
ATOM     13  H   UNL     1      -7.454   6.566  -4.838  0.00  0.00    +0.000 HD
ATOM     14  H   UNL     1     -11.992   8.675  -6.220  0.00  0.00    +0.000 HD
ATOM     15  H   UNL     1      -9.360   2.713  -4.905  0.00  0.00    +0.000 HD
ATOM     16  H   UNL     1      -7.355   4.106  -4.546  0.00  0.00    +0.000 HD
ENDROOT
TORSDOF 0
ENDMDL
MODEL 9
REMARK VINA RESULT:    -4.652     10.094     11.326
REMARK INTER + INTRA:          -4.652
REMARK INTER:                  -4.652
REMARK INTRA:                   0.000
REMARK UNBOUND:                 0.000
REMARK  Name = 798
REMARK  0 active torsions:
REMARK  status: ('A' for Active; 'I' for Inactive)
REMARK                            x       y       z     vdW  Elec       q    Type
REMARK                         _______ _______ _______ _____ _____    ______ ____
ROOT
ATOM      1  N   UNL     1       2.486   1.457 -14.366  0.00  0.00    +0.000 N 
ATOM      2  C   UNL     1       3.386   0.430 -14.533  0.00  0.00    +0.000 A 
ATOM      3  C   UNL     1       2.956  -0.631 -13.733  0.00  0.00    +0.000 A 
ATOM      4  C   UNL     1       1.766  -0.203 -13.079  0.00  0.00    +0.000 A 
ATOM      5  C   UNL     1       4.538   0.358 -15.325  0.00  0.00    +0.000 A 
ATOM      6  C   UNL     1       3.710  -1.820 -13.720  0.00  0.00    +0.000 A 
ATOM      7  C   UNL     1       1.503   1.084 -13.489  0.00  0.00    +0.000 A 
ATOM      8  C   UNL     1       5.270  -0.832 -15.296  0.00  0.00    +0.000 A 
ATOM      9  C   UNL     1       4.864  -1.906 -14.506  0.00  0.00    +0.000 A 
ATOM     10  H   UNL     1       2.542   2.356 -14.824  0.00  0.00    +0.000 HD
ATOM     11  H   UNL     1       1.166  -0.774 -12.385  0.00  0.00    +0.000 HD
ATOM     12  H   UNL     1       4.856   1.193 -15.940  0.00  0.00    +0.000 HD
ATOM     13  H   UNL     1       3.404  -2.665 -13.109  0.00  0.00    +0.000 HD
ATOM     14  H   UNL     1       0.704   1.767 -13.234  0.00  0.00    +0.000 HD
ATOM     15  H   UNL     1       6.171  -0.920 -15.899  0.00  0.00    +0.000 HD
ATOM     16  H   UNL     1       5.450  -2.821 -14.500  0.00  0.00    +0.000 HD
ENDROOT
TORSDOF 0
ENDMDL
MODEL 10
REMARK VINA RESULT:    -4.560     10.194     11.440
REMARK INTER + INTRA:          -4.560
REMARK INTER:                  -4.560
REMARK INTRA:                   0.000
REMARK UNBOUND:                 0.000
REMARK  Name = 798
REMARK  0 active torsions:
REMARK  status: ('A' for Active; 'I' for Inactive)
REMARK                            x       y       z     vdW  Elec       q    Type
REMARK                         _______ _______ _______ _____ _____    ______ ____
ROOT
ATOM      1  N   UNL     1       1.974  -1.903 -12.816  0.00  0.00    +0.000 N 
ATOM      2  C   UNL     1       2.969  -1.359 -13.595  0.00  0.00    +0.000 A 
ATOM      3  C   UNL     1       2.546  -0.082 -13.972  0.00  0.00    +0.000 A 
ATOM      4  C   UNL     1       1.263   0.120 -13.391  0.00  0.00    +0.000 A 
ATOM      5  C   UNL     1       4.200  -1.894 -13.993  0.00  0.00    +0.000 A 
ATOM      6  C   UNL     1       3.391   0.700 -14.784  0.00  0.00    +0.000 A 
ATOM      7  C   UNL     1       0.938  -1.017 -12.687  0.00  0.00    +0.000 A 
ATOM      8  C   UNL     1       5.021  -1.099 -14.798  0.00  0.00    +0.000 A 
ATOM      9  C   UNL     1       4.624   0.179 -15.189  0.00  0.00    +0.000 A 
ATOM     10  H   UNL     1       2.003  -2.824 -12.400  0.00  0.00    +0.000 HD
ATOM     11  H   UNL     1       0.642   1.001 -13.478  0.00  0.00    +0.000 HD
ATOM     12  H   UNL     1       4.510  -2.888 -13.689  0.00  0.00    +0.000 HD
ATOM     13  H   UNL     1       3.093   1.698 -15.095  0.00  0.00    +0.000 HD
ATOM     14  H   UNL     1       0.063  -1.273 -12.106  0.00  0.00    +0.000 HD
ATOM     15  H   UNL     1       5.984  -1.485 -15.124  0.00  0.00    +0.000 HD
ATOM     16  H   UNL     1       5.280   0.777 -15.815  0.00  0.00    +0.000 HD
ENDROOT
TORSDOF 0
ENDMDL
