MODEL 1
REMARK VINA RESULT:    -3.826      0.000      0.000
REMARK INTER + INTRA:          -5.072
REMARK INTER:                  -4.874
REMARK INTRA:                  -0.198
REMARK UNBOUND:                -0.240
REMARK  Name = 8038
REMARK  6 active torsions:
REMARK  status: ('A' for Active; 'I' for Inactive)
REMARK    1  A    between atoms: O_1  and  C_4
REMARK    2  A    between atoms: O_1  and  C_7
REMARK    3  A    between atoms: C_3  and  C_4
REMARK    4  A    between atoms: C_3  and  C_5
REMARK    5  A    between atoms: C_3  and  C_6
REMARK    6  A    between atoms: C_7  and  C_8
REMARK                            x       y       z     vdW  Elec       q    Type
REMARK                         _______ _______ _______ _____ _____    ______ ____
ROOT
ATOM      1  C   UNL     1       5.307   8.026   3.097  0.00  0.00    +0.000 C 
ATOM      2  H   UNL     1       5.426   8.780   3.884  0.00  0.00    +0.000 HD
ENDROOT
BRANCH   1   3
ATOM      3  C   UNL     1       5.137   6.670   3.784  0.00  0.00    +0.000 C 
ATOM      4  H   UNL     1       6.053   6.075   3.703  0.00  0.00    +0.000 HD
ATOM      5  H   UNL     1       4.321   6.096   3.332  0.00  0.00    +0.000 HD
ATOM      6  H   UNL     1       4.916   6.791   4.850  0.00  0.00    +0.000 HD
ENDBRANCH   1   3
BRANCH   1   7
ATOM      7  C   UNL     1       6.562   8.025   2.225  0.00  0.00    +0.000 C 
ATOM      8  H   UNL     1       6.786   9.036   1.865  0.00  0.00    +0.000 HD
ATOM      9  H   UNL     1       6.425   7.382   1.349  0.00  0.00    +0.000 HD
ATOM     10  H   UNL     1       7.433   7.663   2.781  0.00  0.00    +0.000 HD
ENDBRANCH   1   7
BRANCH   1  11
ATOM     11  C   UNL     1       4.076   8.386   2.260  0.00  0.00    +0.000 C 
ATOM     12  H   UNL     1       4.271   8.162   1.204  0.00  0.00    +0.000 HD
ATOM     13  H   UNL     1       3.210   7.800   2.590  0.00  0.00    +0.000 HD
BRANCH  11  14
ATOM     14  O   UNL     1       3.789   9.772   2.393  0.00  0.00    +0.000 OA
BRANCH  14  16
ATOM     15  O   UNL     1       3.309  11.640   1.122  0.00  0.00    +0.000 OA
ATOM     16  C   UNL     1       3.594  10.454   1.224  0.00  0.00    +0.000 C 
BRANCH  16  17
ATOM     17  C   UNL     1       3.782   9.533   0.058  0.00  0.00    +0.000 C 
ATOM     18  H   UNL     1       4.403   8.683   0.353  0.00  0.00    +0.000 HD
ATOM     19  H   UNL     1       4.241  10.076  -0.772  0.00  0.00    +0.000 HD
ATOM     20  H   UNL     1       2.808   9.157  -0.268  0.00  0.00    +0.000 HD
ENDBRANCH  16  17
ENDBRANCH  14  16
ENDBRANCH  11  14
ENDBRANCH   1  11
TORSDOF 6
ENDMDL
MODEL 2
REMARK VINA RESULT:    -3.718      1.585      2.378
REMARK INTER + INTRA:          -4.936
REMARK INTER:                  -4.820
REMARK INTRA:                  -0.117
REMARK UNBOUND:                -0.240
REMARK  Name = 8038
REMARK  6 active torsions:
REMARK  status: ('A' for Active; 'I' for Inactive)
REMARK    1  A    between atoms: O_1  and  C_4
REMARK    2  A    between atoms: O_1  and  C_7
REMARK    3  A    between atoms: C_3  and  C_4
REMARK    4  A    between atoms: C_3  and  C_5
REMARK    5  A    between atoms: C_3  and  C_6
REMARK    6  A    between atoms: C_7  and  C_8
REMARK                            x       y       z     vdW  Elec       q    Type
REMARK                         _______ _______ _______ _____ _____    ______ ____
ROOT
ATOM      1  C   UNL     1       6.592   8.382   0.890  0.00  0.00    +0.000 C 
ATOM      2  H   UNL     1       6.886   7.548   0.240  0.00  0.00    +0.000 HD
ENDROOT
BRANCH   1   3
ATOM      3  C   UNL     1       7.731   9.403   0.868  0.00  0.00    +0.000 C 
ATOM      4  H   UNL     1       8.674   8.939   1.180  0.00  0.00    +0.000 HD
ATOM      5  H   UNL     1       7.527  10.240   1.544  0.00  0.00    +0.000 HD
ATOM      6  H   UNL     1       7.881   9.808  -0.138  0.00  0.00    +0.000 HD
ENDBRANCH   1   3
BRANCH   1   7
ATOM      7  C   UNL     1       6.383   7.850   2.306  0.00  0.00    +0.000 C 
ATOM      8  H   UNL     1       7.282   7.998   2.914  0.00  0.00    +0.000 HD
ATOM      9  H   UNL     1       6.165   6.777   2.289  0.00  0.00    +0.000 HD
ATOM     10  H   UNL     1       5.551   8.358   2.804  0.00  0.00    +0.000 HD
ENDBRANCH   1   7
BRANCH   1  11
ATOM     11  C   UNL     1       5.292   8.986   0.349  0.00  0.00    +0.000 C 
ATOM     12  H   UNL     1       5.251   8.855  -0.739  0.00  0.00    +0.000 HD
ATOM     13  H   UNL     1       4.426   8.484   0.797  0.00  0.00    +0.000 HD
BRANCH  11  14
ATOM     14  O   UNL     1       5.242  10.375   0.650  0.00  0.00    +0.000 OA
BRANCH  14  16
ATOM     15  O   UNL     1       3.273  11.295   1.433  0.00  0.00    +0.000 OA
ATOM     16  C   UNL     1       4.017  10.968   0.518  0.00  0.00    +0.000 C 
BRANCH  16  17
ATOM     17  C   UNL     1       3.702  11.170  -0.933  0.00  0.00    +0.000 C 
ATOM     18  H   UNL     1       2.821  11.808  -1.035  0.00  0.00    +0.000 HD
ATOM     19  H   UNL     1       3.534  10.202  -1.412  0.00  0.00    +0.000 HD
ATOM     20  H   UNL     1       4.547  11.660  -1.423  0.00  0.00    +0.000 HD
ENDBRANCH  16  17
ENDBRANCH  14  16
ENDBRANCH  11  14
ENDBRANCH   1  11
TORSDOF 6
ENDMDL
MODEL 3
REMARK VINA RESULT:    -3.635      2.654      3.622
REMARK INTER + INTRA:          -4.832
REMARK INTER:                  -4.603
REMARK INTRA:                  -0.229
REMARK UNBOUND:                -0.240
REMARK  Name = 8038
REMARK  6 active torsions:
REMARK  status: ('A' for Active; 'I' for Inactive)
REMARK    1  A    between atoms: O_1  and  C_4
REMARK    2  A    between atoms: O_1  and  C_7
REMARK    3  A    between atoms: C_3  and  C_4
REMARK    4  A    between atoms: C_3  and  C_5
REMARK    5  A    between atoms: C_3  and  C_6
REMARK    6  A    between atoms: C_7  and  C_8
REMARK                            x       y       z     vdW  Elec       q    Type
REMARK                         _______ _______ _______ _____ _____    ______ ____
ROOT
ATOM      1  C   UNL     1       7.406  10.531  -0.826  0.00  0.00    +0.000 C 
ATOM      2  H   UNL     1       8.007  11.417  -1.067  0.00  0.00    +0.000 HD
ENDROOT
BRANCH   1   3
ATOM      3  C   UNL     1       7.759  10.114   0.604  0.00  0.00    +0.000 C 
ATOM      4  H   UNL     1       8.818  10.300   0.812  0.00  0.00    +0.000 HD
ATOM      5  H   UNL     1       7.566   9.048   0.765  0.00  0.00    +0.000 HD
ATOM      6  H   UNL     1       7.174  10.680   1.336  0.00  0.00    +0.000 HD
ENDBRANCH   1   3
BRANCH   1   7
ATOM      7  C   UNL     1       7.763   9.416  -1.807  0.00  0.00    +0.000 C 
ATOM      8  H   UNL     1       7.352   9.626  -2.801  0.00  0.00    +0.000 HD
ATOM      9  H   UNL     1       7.352   8.458  -1.472  0.00  0.00    +0.000 HD
ATOM     10  H   UNL     1       8.847   9.304  -1.906  0.00  0.00    +0.000 HD
ENDBRANCH   1   7
BRANCH   1  11
ATOM     11  C   UNL     1       5.925  10.898  -0.951  0.00  0.00    +0.000 C 
ATOM     12  H   UNL     1       5.809  11.718  -1.670  0.00  0.00    +0.000 HD
ATOM     13  H   UNL     1       5.349  10.035  -1.304  0.00  0.00    +0.000 HD
BRANCH  11  14
ATOM     14  O   UNL     1       5.422  11.317   0.312  0.00  0.00    +0.000 OA
BRANCH  14  16
ATOM     15  O   UNL     1       3.271  11.663   1.079  0.00  0.00    +0.000 OA
ATOM     16  C   UNL     1       4.136  10.947   0.593  0.00  0.00    +0.000 C 
BRANCH  16  17
ATOM     17  C   UNL     1       3.924   9.513   0.215  0.00  0.00    +0.000 C 
ATOM     18  H   UNL     1       4.199   8.865   1.051  0.00  0.00    +0.000 HD
ATOM     19  H   UNL     1       4.517   9.272  -0.670  0.00  0.00    +0.000 HD
ATOM     20  H   UNL     1       2.868   9.352  -0.019  0.00  0.00    +0.000 HD
ENDBRANCH  16  17
ENDBRANCH  14  16
ENDBRANCH  11  14
ENDBRANCH   1  11
TORSDOF 6
ENDMDL
MODEL 4
REMARK VINA RESULT:    -3.574     27.303     27.982
REMARK INTER + INTRA:          -4.754
REMARK INTER:                  -4.597
REMARK INTRA:                  -0.158
REMARK UNBOUND:                -0.240
REMARK  Name = 8038
REMARK  6 active torsions:
REMARK  status: ('A' for Active; 'I' for Inactive)
REMARK    1  A    between atoms: O_1  and  C_4
REMARK    2  A    between atoms: O_1  and  C_7
REMARK    3  A    between atoms: C_3  and  C_4
REMARK    4  A    between atoms: C_3  and  C_5
REMARK    5  A    between atoms: C_3  and  C_6
REMARK    6  A    between atoms: C_7  and  C_8
REMARK                            x       y       z     vdW  Elec       q    Type
REMARK                         _______ _______ _______ _____ _____    ______ ____
ROOT
ATOM      1  C   UNL     1     -20.485  -1.433   6.677  0.00  0.00    +0.000 C 
ATOM      2  H   UNL     1     -19.455  -1.703   6.945  0.00  0.00    +0.000 HD
ENDROOT
BRANCH   1   3
ATOM      3  C   UNL     1     -20.408  -0.391   5.560  0.00  0.00    +0.000 C 
ATOM      4  H   UNL     1     -19.851   0.492   5.890  0.00  0.00    +0.000 HD
ATOM      5  H   UNL     1     -21.408  -0.063   5.255  0.00  0.00    +0.000 HD
ATOM      6  H   UNL     1     -19.899  -0.792   4.678  0.00  0.00    +0.000 HD
ENDBRANCH   1   3
BRANCH   1   7
ATOM      7  C   UNL     1     -21.172  -0.844   7.907  0.00  0.00    +0.000 C 
ATOM      8  H   UNL     1     -21.718   0.070   7.647  0.00  0.00    +0.000 HD
ATOM      9  H   UNL     1     -20.437  -0.585   8.676  0.00  0.00    +0.000 HD
ATOM     10  H   UNL     1     -21.885  -1.551   8.343  0.00  0.00    +0.000 HD
ENDBRANCH   1   7
BRANCH   1  11
ATOM     11  C   UNL     1     -21.214  -2.697   6.212  0.00  0.00    +0.000 C 
ATOM     12  H   UNL     1     -21.920  -3.020   6.987  0.00  0.00    +0.000 HD
ATOM     13  H   UNL     1     -21.772  -2.494   5.290  0.00  0.00    +0.000 HD
BRANCH  11  14
ATOM     14  O   UNL     1     -20.275  -3.739   5.979  0.00  0.00    +0.000 OA
BRANCH  14  16
ATOM     15  O   UNL     1     -20.601  -3.548   3.700  0.00  0.00    +0.000 OA
ATOM     16  C   UNL     1     -20.089  -4.089   4.670  0.00  0.00    +0.000 C 
BRANCH  16  17
ATOM     17  C   UNL     1     -19.149  -5.253   4.583  0.00  0.00    +0.000 C 
ATOM     18  H   UNL     1     -19.412  -6.000   5.335  0.00  0.00    +0.000 HD
ATOM     19  H   UNL     1     -18.121  -4.909   4.725  0.00  0.00    +0.000 HD
ATOM     20  H   UNL     1     -19.229  -5.711   3.593  0.00  0.00    +0.000 HD
ENDBRANCH  16  17
ENDBRANCH  14  16
ENDBRANCH  11  14
ENDBRANCH   1  11
TORSDOF 6
ENDMDL
MODEL 5
REMARK VINA RESULT:    -3.533     13.684     14.803
REMARK INTER + INTRA:          -4.702
REMARK INTER:                  -4.539
REMARK INTRA:                  -0.164
REMARK UNBOUND:                -0.240
REMARK  Name = 8038
REMARK  6 active torsions:
REMARK  status: ('A' for Active; 'I' for Inactive)
REMARK    1  A    between atoms: O_1  and  C_4
REMARK    2  A    between atoms: O_1  and  C_7
REMARK    3  A    between atoms: C_3  and  C_4
REMARK    4  A    between atoms: C_3  and  C_5
REMARK    5  A    between atoms: C_3  and  C_6
REMARK    6  A    between atoms: C_7  and  C_8
REMARK                            x       y       z     vdW  Elec       q    Type
REMARK                         _______ _______ _______ _____ _____    ______ ____
ROOT
ATOM      1  C   UNL     1      -3.075   6.656 -10.577  0.00  0.00    +0.000 C 
ATOM      2  H   UNL     1      -2.853   5.581 -10.586  0.00  0.00    +0.000 HD
ENDROOT
BRANCH   1   3
ATOM      3  C   UNL     1      -3.233   7.078  -9.115  0.00  0.00    +0.000 C 
ATOM      4  H   UNL     1      -2.959   6.258  -8.443  0.00  0.00    +0.000 HD
ATOM      5  H   UNL     1      -4.267   7.364  -8.895  0.00  0.00    +0.000 HD
ATOM      6  H   UNL     1      -2.587   7.930  -8.878  0.00  0.00    +0.000 HD
ENDBRANCH   1   3
BRANCH   1   7
ATOM      7  C   UNL     1      -4.377   6.893 -11.341  0.00  0.00    +0.000 C 
ATOM      8  H   UNL     1      -4.295   7.777 -11.983  0.00  0.00    +0.000 HD
ATOM      9  H   UNL     1      -5.209   7.058 -10.649  0.00  0.00    +0.000 HD
ATOM     10  H   UNL     1      -4.628   6.037 -11.976  0.00  0.00    +0.000 HD
ENDBRANCH   1   7
BRANCH   1  11
ATOM     11  C   UNL     1      -1.918   7.398 -11.251  0.00  0.00    +0.000 C 
ATOM     12  H   UNL     1      -1.048   7.407 -10.584  0.00  0.00    +0.000 HD
ATOM     13  H   UNL     1      -1.640   6.897 -12.186  0.00  0.00    +0.000 HD
BRANCH  11  14
ATOM     14  O   UNL     1      -2.300   8.739 -11.529  0.00  0.00    +0.000 OA
BRANCH  14  16
ATOM     15  O   UNL     1      -1.133  10.027 -10.007  0.00  0.00    +0.000 OA
ATOM     16  C   UNL     1      -1.405   9.703 -11.156  0.00  0.00    +0.000 C 
BRANCH  16  17
ATOM     17  C   UNL     1      -0.786  10.323 -12.371  0.00  0.00    +0.000 C 
ATOM     18  H   UNL     1      -0.719   9.583 -13.172  0.00  0.00    +0.000 HD
ATOM     19  H   UNL     1       0.204  10.714 -12.123  0.00  0.00    +0.000 HD
ATOM     20  H   UNL     1      -1.413  11.152 -12.714  0.00  0.00    +0.000 HD
ENDBRANCH  16  17
ENDBRANCH  14  16
ENDBRANCH  11  14
ENDBRANCH   1  11
TORSDOF 6
ENDMDL
MODEL 6
REMARK VINA RESULT:    -3.487     13.575     14.811
REMARK INTER + INTRA:          -4.645
REMARK INTER:                  -4.556
REMARK INTRA:                  -0.088
REMARK UNBOUND:                -0.240
REMARK  Name = 8038
REMARK  6 active torsions:
REMARK  status: ('A' for Active; 'I' for Inactive)
REMARK    1  A    between atoms: O_1  and  C_4
REMARK    2  A    between atoms: O_1  and  C_7
REMARK    3  A    between atoms: C_3  and  C_4
REMARK    4  A    between atoms: C_3  and  C_5
REMARK    5  A    between atoms: C_3  and  C_6
REMARK    6  A    between atoms: C_7  and  C_8
REMARK                            x       y       z     vdW  Elec       q    Type
REMARK                         _______ _______ _______ _____ _____    ______ ____
ROOT
ATOM      1  C   UNL     1      -3.155   7.016  -9.123  0.00  0.00    +0.000 C 
ATOM      2  H   UNL     1      -2.397   6.411  -8.610  0.00  0.00    +0.000 HD
ENDROOT
BRANCH   1   3
ATOM      3  C   UNL     1      -3.033   8.446  -8.595  0.00  0.00    +0.000 C 
ATOM      4  H   UNL     1      -2.153   8.549  -7.951  0.00  0.00    +0.000 HD
ATOM      5  H   UNL     1      -3.915   8.729  -8.010  0.00  0.00    +0.000 HD
ATOM      6  H   UNL     1      -2.926   9.163  -9.416  0.00  0.00    +0.000 HD
ENDBRANCH   1   3
BRANCH   1   7
ATOM      7  C   UNL     1      -4.536   6.447  -8.801  0.00  0.00    +0.000 C 
ATOM      8  H   UNL     1      -5.167   6.428  -9.696  0.00  0.00    +0.000 HD
ATOM      9  H   UNL     1      -5.042   7.060  -8.049  0.00  0.00    +0.000 HD
ATOM     10  H   UNL     1      -4.465   5.425  -8.415  0.00  0.00    +0.000 HD
ENDBRANCH   1   7
BRANCH   1  11
ATOM     11  C   UNL     1      -2.890   6.952 -10.630  0.00  0.00    +0.000 C 
ATOM     12  H   UNL     1      -2.672   5.918 -10.922  0.00  0.00    +0.000 HD
ATOM     13  H   UNL     1      -3.772   7.296 -11.184  0.00  0.00    +0.000 HD
BRANCH  11  14
ATOM     14  O   UNL     1      -1.775   7.771 -10.960  0.00  0.00    +0.000 OA
BRANCH  14  16
ATOM     15  O   UNL     1      -1.545   6.683 -12.985  0.00  0.00    +0.000 OA
ATOM     16  C   UNL     1      -1.235   7.569 -12.200  0.00  0.00    +0.000 C 
BRANCH  16  17
ATOM     17  C   UNL     1      -0.189   8.606 -12.476  0.00  0.00    +0.000 C 
ATOM     18  H   UNL     1       0.804   8.188 -12.297  0.00  0.00    +0.000 HD
ATOM     19  H   UNL     1      -0.359   9.480 -11.841  0.00  0.00    +0.000 HD
ATOM     20  H   UNL     1      -0.254   8.918 -13.522  0.00  0.00    +0.000 HD
ENDBRANCH  16  17
ENDBRANCH  14  16
ENDBRANCH  11  14
ENDBRANCH   1  11
TORSDOF 6
ENDMDL
MODEL 7
REMARK VINA RESULT:    -3.385     27.458     28.083
REMARK INTER + INTRA:          -4.515
REMARK INTER:                  -4.281
REMARK INTRA:                  -0.235
REMARK UNBOUND:                -0.240
REMARK  Name = 8038
REMARK  6 active torsions:
REMARK  status: ('A' for Active; 'I' for Inactive)
REMARK    1  A    between atoms: O_1  and  C_4
REMARK    2  A    between atoms: O_1  and  C_7
REMARK    3  A    between atoms: C_3  and  C_4
REMARK    4  A    between atoms: C_3  and  C_5
REMARK    5  A    between atoms: C_3  and  C_6
REMARK    6  A    between atoms: C_7  and  C_8
REMARK                            x       y       z     vdW  Elec       q    Type
REMARK                         _______ _______ _______ _____ _____    ______ ____
ROOT
ATOM      1  C   UNL     1     -20.936  -4.143   4.673  0.00  0.00    +0.000 C 
ATOM      2  H   UNL     1     -21.658  -4.937   4.441  0.00  0.00    +0.000 HD
ENDROOT
BRANCH   1   3
ATOM      3  C   UNL     1     -20.868  -3.217   3.457  0.00  0.00    +0.000 C 
ATOM      4  H   UNL     1     -21.796  -2.645   3.352  0.00  0.00    +0.000 HD
ATOM      5  H   UNL     1     -20.715  -3.786   2.534  0.00  0.00    +0.000 HD
ATOM      6  H   UNL     1     -20.047  -2.499   3.552  0.00  0.00    +0.000 HD
ENDBRANCH   1   3
BRANCH   1   7
ATOM      7  C   UNL     1     -19.573  -4.781   4.932  0.00  0.00    +0.000 C 
ATOM      8  H   UNL     1     -18.769  -4.162   4.518  0.00  0.00    +0.000 HD
ATOM      9  H   UNL     1     -19.510  -5.767   4.462  0.00  0.00    +0.000 HD
ATOM     10  H   UNL     1     -19.387  -4.903   6.004  0.00  0.00    +0.000 HD
ENDBRANCH   1   7
BRANCH   1  11
ATOM     11  C   UNL     1     -21.420  -3.394   5.919  0.00  0.00    +0.000 C 
ATOM     12  H   UNL     1     -22.225  -2.703   5.642  0.00  0.00    +0.000 HD
ATOM     13  H   UNL     1     -21.805  -4.104   6.661  0.00  0.00    +0.000 HD
BRANCH  11  14
ATOM     14  O   UNL     1     -20.347  -2.652   6.484  0.00  0.00    +0.000 OA
BRANCH  14  16
ATOM     15  O   UNL     1     -21.086  -1.129   8.056  0.00  0.00    +0.000 OA
ATOM     16  C   UNL     1     -20.664  -1.402   6.940  0.00  0.00    +0.000 C 
BRANCH  16  17
ATOM     17  C   UNL     1     -20.418  -0.389   5.864  0.00  0.00    +0.000 C 
ATOM     18  H   UNL     1     -21.022   0.502   6.049  0.00  0.00    +0.000 HD
ATOM     19  H   UNL     1     -20.657  -0.820   4.889  0.00  0.00    +0.000 HD
ATOM     20  H   UNL     1     -19.363  -0.103   5.870  0.00  0.00    +0.000 HD
ENDBRANCH  16  17
ENDBRANCH  14  16
ENDBRANCH  11  14
ENDBRANCH   1  11
TORSDOF 6
ENDMDL
MODEL 8
REMARK VINA RESULT:    -3.256      2.618      4.124
REMARK INTER + INTRA:          -4.353
REMARK INTER:                  -4.119
REMARK INTRA:                  -0.234
REMARK UNBOUND:                -0.240
REMARK  Name = 8038
REMARK  6 active torsions:
REMARK  status: ('A' for Active; 'I' for Inactive)
REMARK    1  A    between atoms: O_1  and  C_4
REMARK    2  A    between atoms: O_1  and  C_7
REMARK    3  A    between atoms: C_3  and  C_4
REMARK    4  A    between atoms: C_3  and  C_5
REMARK    5  A    between atoms: C_3  and  C_6
REMARK    6  A    between atoms: C_7  and  C_8
REMARK                            x       y       z     vdW  Elec       q    Type
REMARK                         _______ _______ _______ _____ _____    ______ ____
ROOT
ATOM      1  C   UNL     1       4.024   9.462   0.254  0.00  0.00    +0.000 C 
ATOM      2  H   UNL     1       3.289   8.797  -0.216  0.00  0.00    +0.000 HD
ENDROOT
BRANCH   1   3
ATOM      3  C   UNL     1       3.574   9.694   1.697  0.00  0.00    +0.000 C 
ATOM      4  H   UNL     1       3.147   8.780   2.123  0.00  0.00    +0.000 HD
ATOM      5  H   UNL     1       2.812  10.479   1.753  0.00  0.00    +0.000 HD
ATOM      6  H   UNL     1       4.415   9.992   2.331  0.00  0.00    +0.000 HD
ENDBRANCH   1   3
BRANCH   1   7
ATOM      7  C   UNL     1       4.051  10.783  -0.513  0.00  0.00    +0.000 C 
ATOM      8  H   UNL     1       3.936  10.610  -1.589  0.00  0.00    +0.000 HD
ATOM      9  H   UNL     1       5.002  11.302  -0.359  0.00  0.00    +0.000 HD
ATOM     10  H   UNL     1       3.244  11.448  -0.189  0.00  0.00    +0.000 HD
ENDBRANCH   1   7
BRANCH   1  11
ATOM     11  C   UNL     1       5.397   8.786   0.200  0.00  0.00    +0.000 C 
ATOM     12  H   UNL     1       5.573   8.236   1.132  0.00  0.00    +0.000 HD
ATOM     13  H   UNL     1       5.439   8.080  -0.639  0.00  0.00    +0.000 HD
BRANCH  11  14
ATOM     14  O   UNL     1       6.414   9.767   0.043  0.00  0.00    +0.000 OA
BRANCH  14  16
ATOM     15  O   UNL     1       8.719   9.704   0.179  0.00  0.00    +0.000 OA
ATOM     16  C   UNL     1       7.609   9.488   0.646  0.00  0.00    +0.000 C 
BRANCH  16  17
ATOM     17  C   UNL     1       7.370   8.866   1.988  0.00  0.00    +0.000 C 
ATOM     18  H   UNL     1       8.318   8.527   2.414  0.00  0.00    +0.000 HD
ATOM     19  H   UNL     1       6.672   8.030   1.889  0.00  0.00    +0.000 HD
ATOM     20  H   UNL     1       6.931   9.609   2.660  0.00  0.00    +0.000 HD
ENDBRANCH  16  17
ENDBRANCH  14  16
ENDBRANCH  11  14
ENDBRANCH   1  11
TORSDOF 6
ENDMDL
MODEL 9
REMARK VINA RESULT:    -3.214     13.020     14.070
REMARK INTER + INTRA:          -4.300
REMARK INTER:                  -4.060
REMARK INTRA:                  -0.240
REMARK UNBOUND:                -0.240
REMARK  Name = 8038
REMARK  6 active torsions:
REMARK  status: ('A' for Active; 'I' for Inactive)
REMARK    1  A    between atoms: O_1  and  C_4
REMARK    2  A    between atoms: O_1  and  C_7
REMARK    3  A    between atoms: C_3  and  C_4
REMARK    4  A    between atoms: C_3  and  C_5
REMARK    5  A    between atoms: C_3  and  C_6
REMARK    6  A    between atoms: C_7  and  C_8
REMARK                            x       y       z     vdW  Elec       q    Type
REMARK                         _______ _______ _______ _____ _____    ______ ____
ROOT
ATOM      1  C   UNL     1      -7.420  12.506   5.459  0.00  0.00    +0.000 C 
ATOM      2  H   UNL     1      -7.347  12.060   6.459  0.00  0.00    +0.000 HD
ENDROOT
BRANCH   1   3
ATOM      3  C   UNL     1      -7.232  11.380   4.441  0.00  0.00    +0.000 C 
ATOM      4  H   UNL     1      -6.542  10.621   4.824  0.00  0.00    +0.000 HD
ATOM      5  H   UNL     1      -6.825  11.762   3.499  0.00  0.00    +0.000 HD
ATOM      6  H   UNL     1      -8.182  10.881   4.223  0.00  0.00    +0.000 HD
ENDBRANCH   1   3
BRANCH   1   7
ATOM      7  C   UNL     1      -6.316  13.550   5.306  0.00  0.00    +0.000 C 
ATOM      8  H   UNL     1      -5.410  13.239   5.840  0.00  0.00    +0.000 HD
ATOM      9  H   UNL     1      -6.632  14.513   5.719  0.00  0.00    +0.000 HD
ATOM     10  H   UNL     1      -6.053  13.701   4.254  0.00  0.00    +0.000 HD
ENDBRANCH   1   7
BRANCH   1  11
ATOM     11  C   UNL     1      -8.797  13.162   5.319  0.00  0.00    +0.000 C 
ATOM     12  H   UNL     1      -9.493  12.713   6.037  0.00  0.00    +0.000 HD
ATOM     13  H   UNL     1      -8.727  14.237   5.521  0.00  0.00    +0.000 HD
BRANCH  11  14
ATOM     14  O   UNL     1      -9.297  12.959   4.003  0.00  0.00    +0.000 OA
BRANCH  14  16
ATOM     15  O   UNL     1     -11.264  14.040   3.453  0.00  0.00    +0.000 OA
ATOM     16  C   UNL     1     -10.041  13.983   3.485  0.00  0.00    +0.000 C 
BRANCH  16  17
ATOM     17  C   UNL     1      -9.138  15.051   2.950  0.00  0.00    +0.000 C 
ATOM     18  H   UNL     1      -8.527  15.460   3.758  0.00  0.00    +0.000 HD
ATOM     19  H   UNL     1      -9.733  15.839   2.481  0.00  0.00    +0.000 HD
ATOM     20  H   UNL     1      -8.474  14.620   2.195  0.00  0.00    +0.000 HD
ENDBRANCH  16  17
ENDBRANCH  14  16
ENDBRANCH  11  14
ENDBRANCH   1  11
TORSDOF 6
ENDMDL
MODEL 10
REMARK VINA RESULT:    -3.167      2.982      3.382
REMARK INTER + INTRA:          -4.240
REMARK INTER:                  -4.094
REMARK INTRA:                  -0.146
REMARK UNBOUND:                -0.240
REMARK  Name = 8038
REMARK  6 active torsions:
REMARK  status: ('A' for Active; 'I' for Inactive)
REMARK    1  A    between atoms: O_1  and  C_4
REMARK    2  A    between atoms: O_1  and  C_7
REMARK    3  A    between atoms: C_3  and  C_4
REMARK    4  A    between atoms: C_3  and  C_5
REMARK    5  A    between atoms: C_3  and  C_6
REMARK    6  A    between atoms: C_7  and  C_8
REMARK                            x       y       z     vdW  Elec       q    Type
REMARK                         _______ _______ _______ _____ _____    ______ ____
ROOT
ATOM      1  C   UNL     1       6.182   8.112   3.756  0.00  0.00    +0.000 C 
ATOM      2  H   UNL     1       5.380   8.858   3.832  0.00  0.00    +0.000 HD
ENDROOT
BRANCH   1   3
ATOM      3  C   UNL     1       5.518   6.742   3.606  0.00  0.00    +0.000 C 
ATOM      4  H   UNL     1       5.346   6.284   4.586  0.00  0.00    +0.000 HD
ATOM      5  H   UNL     1       6.145   6.060   3.021  0.00  0.00    +0.000 HD
ATOM      6  H   UNL     1       4.548   6.824   3.106  0.00  0.00    +0.000 HD
ENDBRANCH   1   3
BRANCH   1   7
ATOM      7  C   UNL     1       7.018   8.160   5.033  0.00  0.00    +0.000 C 
ATOM      8  H   UNL     1       6.415   8.507   5.880  0.00  0.00    +0.000 HD
ATOM      9  H   UNL     1       7.861   8.849   4.919  0.00  0.00    +0.000 HD
ATOM     10  H   UNL     1       7.418   7.172   5.285  0.00  0.00    +0.000 HD
ENDBRANCH   1   7
BRANCH   1  11
ATOM     11  C   UNL     1       7.047   8.449   2.538  0.00  0.00    +0.000 C 
ATOM     12  H   UNL     1       7.043   9.534   2.374  0.00  0.00    +0.000 HD
ATOM     13  H   UNL     1       8.080   8.122   2.706  0.00  0.00    +0.000 HD
BRANCH  11  14
ATOM     14  O   UNL     1       6.527   7.805   1.382  0.00  0.00    +0.000 OA
BRANCH  14  16
ATOM     15  O   UNL     1       6.980   7.753  -0.882  0.00  0.00    +0.000 OA
ATOM     16  C   UNL     1       6.892   8.350   0.182  0.00  0.00    +0.000 C 
BRANCH  16  17
ATOM     17  C   UNL     1       7.178   9.811   0.351  0.00  0.00    +0.000 C 
ATOM     18  H   UNL     1       6.256  10.385   0.235  0.00  0.00    +0.000 HD
ATOM     19  H   UNL     1       7.924  10.129  -0.381  0.00  0.00    +0.000 HD
ATOM     20  H   UNL     1       7.576   9.989   1.354  0.00  0.00    +0.000 HD
ENDBRANCH  16  17
ENDBRANCH  14  16
ENDBRANCH  11  14
ENDBRANCH   1  11
TORSDOF 6
ENDMDL
