MODEL 1
REMARK VINA RESULT:    -3.648      0.000      0.000
REMARK INTER + INTRA:          -4.181
REMARK INTER:                  -4.181
REMARK INTRA:                   0.000
REMARK UNBOUND:                 0.000
REMARK  Name = 6590
REMARK  4 active torsions:
REMARK  status: ('A' for Active; 'I' for Inactive)
REMARK    1  A    between atoms: O_1  and  C_6
REMARK    2  A    between atoms: C_3  and  C_4
REMARK    3  A    between atoms: C_3  and  C_5
REMARK    4  A    between atoms: C_3  and  C_6
REMARK                            x       y       z     vdW  Elec       q    Type
REMARK                         _______ _______ _______ _____ _____    ______ ____
ROOT
ATOM      1  C   UNL     1       4.230  10.736  -0.696  0.00  0.00    +0.000 C 
ATOM      2  H   UNL     1       4.097   9.682  -0.417  0.00  0.00    +0.000 HD
ENDROOT
BRANCH   1   3
ATOM      3  C   UNL     1       3.214  11.109  -1.768  0.00  0.00    +0.000 C 
ATOM      4  H   UNL     1       2.932  10.234  -2.363  0.00  0.00    +0.000 HD
ATOM      5  H   UNL     1       3.614  11.870  -2.447  0.00  0.00    +0.000 HD
ATOM      6  H   UNL     1       2.304  11.519  -1.318  0.00  0.00    +0.000 HD
ENDBRANCH   1   3
BRANCH   1   7
ATOM      7  C   UNL     1       5.656  10.898  -1.215  0.00  0.00    +0.000 C 
ATOM      8  H   UNL     1       6.394  10.642  -0.447  0.00  0.00    +0.000 HD
ATOM      9  H   UNL     1       5.841  11.930  -1.533  0.00  0.00    +0.000 HD
ATOM     10  H   UNL     1       5.834  10.240  -2.073  0.00  0.00    +0.000 HD
ENDBRANCH   1   7
BRANCH   1  12
ATOM     11  O   UNL     1       3.187  11.371   1.417  0.00  0.00    +0.000 OA
ATOM     12  C   UNL     1       4.009  11.585   0.539  0.00  0.00    +0.000 C 
BRANCH  12  13
ATOM     13  O   UNL     1       4.868  12.637   0.554  0.00  0.00    +0.000 OA
ATOM     14  H   UNL     1       4.442  13.452   0.894  0.00  0.00    +0.000 HD
ENDBRANCH  12  13
ENDBRANCH   1  12
TORSDOF 4
ENDMDL
MODEL 2
REMARK VINA RESULT:    -3.466     11.474     12.135
REMARK INTER + INTRA:          -3.973
REMARK INTER:                  -3.973
REMARK INTRA:                   0.000
REMARK UNBOUND:                 0.000
REMARK  Name = 6590
REMARK  4 active torsions:
REMARK  status: ('A' for Active; 'I' for Inactive)
REMARK    1  A    between atoms: O_1  and  C_6
REMARK    2  A    between atoms: C_3  and  C_4
REMARK    3  A    between atoms: C_3  and  C_5
REMARK    4  A    between atoms: C_3  and  C_6
REMARK                            x       y       z     vdW  Elec       q    Type
REMARK                         _______ _______ _______ _____ _____    ______ ____
ROOT
ATOM      1  C   UNL     1      -3.121   7.922  -9.965  0.00  0.00    +0.000 C 
ATOM      2  H   UNL     1      -4.045   8.226 -10.474  0.00  0.00    +0.000 HD
ENDROOT
BRANCH   1   3
ATOM      3  C   UNL     1      -2.181   7.263 -10.966  0.00  0.00    +0.000 C 
ATOM      4  H   UNL     1      -1.496   7.996 -11.402  0.00  0.00    +0.000 HD
ATOM      5  H   UNL     1      -2.738   6.787 -11.780  0.00  0.00    +0.000 HD
ATOM      6  H   UNL     1      -1.580   6.485 -10.483  0.00  0.00    +0.000 HD
ENDBRANCH   1   3
BRANCH   1   7
ATOM      7  C   UNL     1      -3.507   6.949  -8.855  0.00  0.00    +0.000 C 
ATOM      8  H   UNL     1      -3.270   7.354  -7.865  0.00  0.00    +0.000 HD
ATOM      9  H   UNL     1      -2.976   5.998  -8.968  0.00  0.00    +0.000 HD
ATOM     10  H   UNL     1      -4.583   6.742  -8.876  0.00  0.00    +0.000 HD
ENDBRANCH   1   7
BRANCH   1  12
ATOM     11  O   UNL     1      -1.459   9.703  -9.811  0.00  0.00    +0.000 OA
ATOM     12  C   UNL     1      -2.469   9.162  -9.387  0.00  0.00    +0.000 C 
BRANCH  12  13
ATOM     13  O   UNL     1      -3.170   9.615  -8.316  0.00  0.00    +0.000 OA
ATOM     14  H   UNL     1      -2.916  10.530  -8.073  0.00  0.00    +0.000 HD
ENDBRANCH  12  13
ENDBRANCH   1  12
TORSDOF 4
ENDMDL
MODEL 3
REMARK VINA RESULT:    -3.461     14.304     15.258
REMARK INTER + INTRA:          -3.967
REMARK INTER:                  -3.967
REMARK INTRA:                   0.000
REMARK UNBOUND:                 0.000
REMARK  Name = 6590
REMARK  4 active torsions:
REMARK  status: ('A' for Active; 'I' for Inactive)
REMARK    1  A    between atoms: O_1  and  C_6
REMARK    2  A    between atoms: C_3  and  C_4
REMARK    3  A    between atoms: C_3  and  C_5
REMARK    4  A    between atoms: C_3  and  C_6
REMARK                            x       y       z     vdW  Elec       q    Type
REMARK                         _______ _______ _______ _____ _____    ______ ____
ROOT
ATOM      1  C   UNL     1      -9.041   4.945  -5.551  0.00  0.00    +0.000 C 
ATOM      2  H   UNL     1      -8.766   4.740  -6.594  0.00  0.00    +0.000 HD
ENDROOT
BRANCH   1   3
ATOM      3  C   UNL     1      -8.369   3.927  -4.639  0.00  0.00    +0.000 C 
ATOM      4  H   UNL     1      -7.295   3.864  -4.846  0.00  0.00    +0.000 HD
ATOM      5  H   UNL     1      -8.802   2.929  -4.769  0.00  0.00    +0.000 HD
ATOM      6  H   UNL     1      -8.494   4.203  -3.586  0.00  0.00    +0.000 HD
ENDBRANCH   1   3
BRANCH   1   7
ATOM      7  C   UNL     1     -10.561   4.849  -5.450  0.00  0.00    +0.000 C 
ATOM      8  H   UNL     1     -10.871   4.342  -4.529  0.00  0.00    +0.000 HD
ATOM      9  H   UNL     1     -10.974   4.293  -6.299  0.00  0.00    +0.000 HD
ATOM     10  H   UNL     1     -11.014   5.847  -5.444  0.00  0.00    +0.000 HD
ENDBRANCH   1   7
BRANCH   1  12
ATOM     11  O   UNL     1      -8.981   7.381  -5.692  0.00  0.00    +0.000 OA
ATOM     12  C   UNL     1      -8.568   6.341  -5.201  0.00  0.00    +0.000 C 
BRANCH  12  13
ATOM     13  O   UNL     1      -7.610   6.293  -4.240  0.00  0.00    +0.000 OA
ATOM     14  H   UNL     1      -6.713   6.433  -4.611  0.00  0.00    +0.000 HD
ENDBRANCH  12  13
ENDBRANCH   1  12
TORSDOF 4
ENDMDL
MODEL 4
REMARK VINA RESULT:    -3.443     28.567     29.394
REMARK INTER + INTRA:          -3.947
REMARK INTER:                  -3.947
REMARK INTRA:                   0.000
REMARK UNBOUND:                 0.000
REMARK  Name = 6590
REMARK  4 active torsions:
REMARK  status: ('A' for Active; 'I' for Inactive)
REMARK    1  A    between atoms: O_1  and  C_6
REMARK    2  A    between atoms: C_3  and  C_4
REMARK    3  A    between atoms: C_3  and  C_5
REMARK    4  A    between atoms: C_3  and  C_6
REMARK                            x       y       z     vdW  Elec       q    Type
REMARK                         _______ _______ _______ _____ _____    ______ ____
ROOT
ATOM      1  C   UNL     1     -20.482  -1.192   7.077  0.00  0.00    +0.000 C 
ATOM      2  H   UNL     1     -19.469  -1.174   7.498  0.00  0.00    +0.000 HD
ENDROOT
BRANCH   1   3
ATOM      3  C   UNL     1     -20.488  -0.468   5.737  0.00  0.00    +0.000 C 
ATOM      4  H   UNL     1     -21.170   0.389   5.757  0.00  0.00    +0.000 HD
ATOM      5  H   UNL     1     -20.800  -1.135   4.926  0.00  0.00    +0.000 HD
ATOM      6  H   UNL     1     -19.488  -0.097   5.489  0.00  0.00    +0.000 HD
ENDBRANCH   1   3
BRANCH   1   7
ATOM      7  C   UNL     1     -21.407  -0.500   8.076  0.00  0.00    +0.000 C 
ATOM      8  H   UNL     1     -22.013   0.273   7.592  0.00  0.00    +0.000 HD
ATOM      9  H   UNL     1     -20.830  -0.027   8.878  0.00  0.00    +0.000 HD
ATOM     10  H   UNL     1     -22.095  -1.221   8.531  0.00  0.00    +0.000 HD
ENDBRANCH   1   7
BRANCH   1  12
ATOM     11  O   UNL     1     -20.470  -3.389   6.014  0.00  0.00    +0.000 OA
ATOM     12  C   UNL     1     -20.890  -2.638   6.883  0.00  0.00    +0.000 C 
BRANCH  12  13
ATOM     13  O   UNL     1     -21.796  -3.009   7.823  0.00  0.00    +0.000 OA
ATOM     14  H   UNL     1     -22.672  -3.208   7.428  0.00  0.00    +0.000 HD
ENDBRANCH  12  13
ENDBRANCH   1  12
TORSDOF 4
ENDMDL
MODEL 5
REMARK VINA RESULT:    -3.443     12.652     13.494
REMARK INTER + INTRA:          -3.946
REMARK INTER:                  -3.946
REMARK INTRA:                   0.000
REMARK UNBOUND:                 0.000
REMARK  Name = 6590
REMARK  4 active torsions:
REMARK  status: ('A' for Active; 'I' for Inactive)
REMARK    1  A    between atoms: O_1  and  C_6
REMARK    2  A    between atoms: C_3  and  C_4
REMARK    3  A    between atoms: C_3  and  C_5
REMARK    4  A    between atoms: C_3  and  C_6
REMARK                            x       y       z     vdW  Elec       q    Type
REMARK                         _______ _______ _______ _____ _____    ______ ____
ROOT
ATOM      1  C   UNL     1      -3.156   6.662 -10.499  0.00  0.00    +0.000 C 
ATOM      2  H   UNL     1      -2.922   5.595 -10.611  0.00  0.00    +0.000 HD
ENDROOT
BRANCH   1   3
ATOM      3  C   UNL     1      -3.357   6.986  -9.024  0.00  0.00    +0.000 C 
ATOM      4  H   UNL     1      -3.591   8.047  -8.884  0.00  0.00    +0.000 HD
ATOM      5  H   UNL     1      -2.461   6.752  -8.440  0.00  0.00    +0.000 HD
ATOM      6  H   UNL     1      -4.182   6.400  -8.605  0.00  0.00    +0.000 HD
ENDBRANCH   1   3
BRANCH   1   7
ATOM      7  C   UNL     1      -4.427   6.939 -11.297  0.00  0.00    +0.000 C 
ATOM      8  H   UNL     1      -4.587   8.013 -11.437  0.00  0.00    +0.000 HD
ATOM      9  H   UNL     1      -5.305   6.528 -10.787  0.00  0.00    +0.000 HD
ATOM     10  H   UNL     1      -4.368   6.483 -12.292  0.00  0.00    +0.000 HD
ENDBRANCH   1   7
BRANCH   1  12
ATOM     11  O   UNL     1      -1.880   8.679 -11.008  0.00  0.00    +0.000 OA
ATOM     12  C   UNL     1      -1.994   7.463 -11.048  0.00  0.00    +0.000 C 
BRANCH  12  13
ATOM     13  O   UNL     1      -1.063   6.640 -11.597  0.00  0.00    +0.000 OA
ATOM     14  H   UNL     1      -0.214   6.670 -11.108  0.00  0.00    +0.000 HD
ENDBRANCH  12  13
ENDBRANCH   1  12
TORSDOF 4
ENDMDL
MODEL 6
REMARK VINA RESULT:    -3.433     28.642     29.161
REMARK INTER + INTRA:          -3.935
REMARK INTER:                  -3.935
REMARK INTRA:                   0.000
REMARK UNBOUND:                 0.000
REMARK  Name = 6590
REMARK  4 active torsions:
REMARK  status: ('A' for Active; 'I' for Inactive)
REMARK    1  A    between atoms: O_1  and  C_6
REMARK    2  A    between atoms: C_3  and  C_4
REMARK    3  A    between atoms: C_3  and  C_5
REMARK    4  A    between atoms: C_3  and  C_6
REMARK                            x       y       z     vdW  Elec       q    Type
REMARK                         _______ _______ _______ _____ _____    ______ ____
ROOT
ATOM      1  C   UNL     1     -20.325  -4.680   4.385  0.00  0.00    +0.000 C 
ATOM      2  H   UNL     1     -21.014  -5.531   4.470  0.00  0.00    +0.000 HD
ENDROOT
BRANCH   1   3
ATOM      3  C   UNL     1     -20.525  -3.744   5.570  0.00  0.00    +0.000 C 
ATOM      4  H   UNL     1     -21.445  -3.988   6.111  0.00  0.00    +0.000 HD
ATOM      5  H   UNL     1     -20.584  -2.700   5.246  0.00  0.00    +0.000 HD
ATOM      6  H   UNL     1     -19.689  -3.822   6.274  0.00  0.00    +0.000 HD
ENDBRANCH   1   3
BRANCH   1   7
ATOM      7  C   UNL     1     -20.631  -3.970   3.070  0.00  0.00    +0.000 C 
ATOM      8  H   UNL     1     -21.413  -4.488   2.506  0.00  0.00    +0.000 HD
ATOM      9  H   UNL     1     -19.737  -3.915   2.439  0.00  0.00    +0.000 HD
ATOM     10  H   UNL     1     -20.980  -2.947   3.253  0.00  0.00    +0.000 HD
ENDBRANCH   1   7
BRANCH   1  12
ATOM     11  O   UNL     1     -18.162  -5.271   3.421  0.00  0.00    +0.000 OA
ATOM     12  C   UNL     1     -18.908  -5.217   4.387  0.00  0.00    +0.000 C 
BRANCH  12  13
ATOM     13  O   UNL     1     -18.556  -5.633   5.631  0.00  0.00    +0.000 OA
ATOM     14  H   UNL     1     -19.325  -5.659   6.239  0.00  0.00    +0.000 HD
ENDBRANCH  12  13
ENDBRANCH   1  12
TORSDOF 4
ENDMDL
MODEL 7
REMARK VINA RESULT:    -3.432      1.733      2.357
REMARK INTER + INTRA:          -3.933
REMARK INTER:                  -3.933
REMARK INTRA:                   0.000
REMARK UNBOUND:                 0.000
REMARK  Name = 6590
REMARK  4 active torsions:
REMARK  status: ('A' for Active; 'I' for Inactive)
REMARK    1  A    between atoms: O_1  and  C_6
REMARK    2  A    between atoms: C_3  and  C_4
REMARK    3  A    between atoms: C_3  and  C_5
REMARK    4  A    between atoms: C_3  and  C_6
REMARK                            x       y       z     vdW  Elec       q    Type
REMARK                         _______ _______ _______ _____ _____    ______ ____
ROOT
ATOM      1  C   UNL     1       3.774  11.492   0.121  0.00  0.00    +0.000 C 
ATOM      2  H   UNL     1       3.175  12.306   0.549  0.00  0.00    +0.000 HD
ENDROOT
BRANCH   1   3
ATOM      3  C   UNL     1       5.251  11.862   0.181  0.00  0.00    +0.000 C 
ATOM      4  H   UNL     1       5.412  12.889  -0.162  0.00  0.00    +0.000 HD
ATOM      5  H   UNL     1       5.854  11.193  -0.443  0.00  0.00    +0.000 HD
ATOM      6  H   UNL     1       5.631  11.784   1.206  0.00  0.00    +0.000 HD
ENDBRANCH   1   3
BRANCH   1   7
ATOM      7  C   UNL     1       3.319  11.295  -1.322  0.00  0.00    +0.000 C 
ATOM      8  H   UNL     1       3.850  11.967  -2.005  0.00  0.00    +0.000 HD
ATOM      9  H   UNL     1       2.245  11.489  -1.422  0.00  0.00    +0.000 HD
ATOM     10  H   UNL     1       3.511  10.269  -1.654  0.00  0.00    +0.000 HD
ENDBRANCH   1   7
BRANCH   1  12
ATOM     11  O   UNL     1       3.163  10.206   2.104  0.00  0.00    +0.000 OA
ATOM     12  C   UNL     1       3.524  10.240   0.937  0.00  0.00    +0.000 C 
BRANCH  12  13
ATOM     13  O   UNL     1       3.747   9.129   0.187  0.00  0.00    +0.000 OA
ATOM     14  H   UNL     1       3.255   9.156  -0.660  0.00  0.00    +0.000 HD
ENDBRANCH  12  13
ENDBRANCH   1  12
TORSDOF 4
ENDMDL
MODEL 8
REMARK VINA RESULT:    -3.385     29.254     29.921
REMARK INTER + INTRA:          -3.880
REMARK INTER:                  -3.880
REMARK INTRA:                   0.000
REMARK UNBOUND:                 0.000
REMARK  Name = 6590
REMARK  4 active torsions:
REMARK  status: ('A' for Active; 'I' for Inactive)
REMARK    1  A    between atoms: O_1  and  C_6
REMARK    2  A    between atoms: C_3  and  C_4
REMARK    3  A    between atoms: C_3  and  C_5
REMARK    4  A    between atoms: C_3  and  C_6
REMARK                            x       y       z     vdW  Elec       q    Type
REMARK                         _______ _______ _______ _____ _____    ______ ____
ROOT
ATOM      1  C   UNL     1      -8.688 -11.627  15.019  0.00  0.00    +0.000 C 
ATOM      2  H   UNL     1      -8.688 -12.463  14.308  0.00  0.00    +0.000 HD
ENDROOT
BRANCH   1   3
ATOM      3  C   UNL     1      -7.349 -11.578  15.744  0.00  0.00    +0.000 C 
ATOM      4  H   UNL     1      -6.716 -10.778  15.347  0.00  0.00    +0.000 HD
ATOM      5  H   UNL     1      -6.807 -12.525  15.643  0.00  0.00    +0.000 HD
ATOM      6  H   UNL     1      -7.491 -11.396  16.815  0.00  0.00    +0.000 HD
ENDBRANCH   1   3
BRANCH   1   7
ATOM      7  C   UNL     1      -9.833 -11.858  16.001  0.00  0.00    +0.000 C 
ATOM      8  H   UNL     1     -10.507 -10.996  16.041  0.00  0.00    +0.000 HD
ATOM      9  H   UNL     1      -9.449 -12.036  17.012  0.00  0.00    +0.000 HD
ATOM     10  H   UNL     1     -10.429 -12.728  15.705  0.00  0.00    +0.000 HD
ENDBRANCH   1   7
BRANCH   1  12
ATOM     11  O   UNL     1      -8.908 -10.236  13.026  0.00  0.00    +0.000 OA
ATOM     12  C   UNL     1      -8.899 -10.343  14.243  0.00  0.00    +0.000 C 
BRANCH  12  13
ATOM     13  O   UNL     1      -9.091  -9.299  15.090  0.00  0.00    +0.000 OA
ATOM     14  H   UNL     1      -9.874  -8.765  14.840  0.00  0.00    +0.000 HD
ENDBRANCH  12  13
ENDBRANCH   1  12
TORSDOF 4
ENDMDL
MODEL 9
REMARK VINA RESULT:    -3.327     29.620     30.242
REMARK INTER + INTRA:          -3.813
REMARK INTER:                  -3.813
REMARK INTRA:                   0.000
REMARK UNBOUND:                 0.000
REMARK  Name = 6590
REMARK  4 active torsions:
REMARK  status: ('A' for Active; 'I' for Inactive)
REMARK    1  A    between atoms: O_1  and  C_6
REMARK    2  A    between atoms: C_3  and  C_4
REMARK    3  A    between atoms: C_3  and  C_5
REMARK    4  A    between atoms: C_3  and  C_6
REMARK                            x       y       z     vdW  Elec       q    Type
REMARK                         _______ _______ _______ _____ _____    ______ ____
ROOT
ATOM      1  C   UNL     1      -8.929 -11.205  15.599  0.00  0.00    +0.000 C 
ATOM      2  H   UNL     1      -8.312 -10.851  16.435  0.00  0.00    +0.000 HD
ENDROOT
BRANCH   1   3
ATOM      3  C   UNL     1      -9.778 -12.384  16.056  0.00  0.00    +0.000 C 
ATOM      4  H   UNL     1     -10.317 -12.144  16.979  0.00  0.00    +0.000 HD
ATOM      5  H   UNL     1      -9.162 -13.271  16.240  0.00  0.00    +0.000 HD
ATOM      6  H   UNL     1     -10.518 -12.651  15.294  0.00  0.00    +0.000 HD
ENDBRANCH   1   3
BRANCH   1   7
ATOM      7  C   UNL     1      -7.984 -11.617  14.473  0.00  0.00    +0.000 C 
ATOM      8  H   UNL     1      -6.967 -11.251  14.649  0.00  0.00    +0.000 HD
ATOM      9  H   UNL     1      -8.326 -11.220  13.511  0.00  0.00    +0.000 HD
ATOM     10  H   UNL     1      -7.930 -12.708  14.391  0.00  0.00    +0.000 HD
ENDBRANCH   1   7
BRANCH   1  12
ATOM     11  O   UNL     1     -11.047 -10.077  15.154  0.00  0.00    +0.000 OA
ATOM     12  C   UNL     1      -9.825 -10.066  15.156  0.00  0.00    +0.000 C 
BRANCH  12  13
ATOM     13  O   UNL     1      -9.082  -9.001  14.759  0.00  0.00    +0.000 OA
ATOM     14  H   UNL     1      -8.229  -8.951  15.239  0.00  0.00    +0.000 HD
ENDBRANCH  12  13
ENDBRANCH   1  12
TORSDOF 4
ENDMDL
MODEL 10
REMARK VINA RESULT:    -3.203     14.301     15.209
REMARK INTER + INTRA:          -3.672
REMARK INTER:                  -3.672
REMARK INTRA:                   0.000
REMARK UNBOUND:                 0.000
REMARK  Name = 6590
REMARK  4 active torsions:
REMARK  status: ('A' for Active; 'I' for Inactive)
REMARK    1  A    between atoms: O_1  and  C_6
REMARK    2  A    between atoms: C_3  and  C_4
REMARK    3  A    between atoms: C_3  and  C_5
REMARK    4  A    between atoms: C_3  and  C_6
REMARK                            x       y       z     vdW  Elec       q    Type
REMARK                         _______ _______ _______ _____ _____    ______ ____
ROOT
ATOM      1  C   UNL     1      -9.392   5.919  -5.793  0.00  0.00    +0.000 C 
ATOM      2  H   UNL     1      -9.117   5.593  -6.805  0.00  0.00    +0.000 HD
ENDROOT
BRANCH   1   3
ATOM      3  C   UNL     1     -10.742   5.323  -5.417  0.00  0.00    +0.000 C 
ATOM      4  H   UNL     1     -10.805   4.272  -5.719  0.00  0.00    +0.000 HD
ATOM      5  H   UNL     1     -11.564   5.866  -5.896  0.00  0.00    +0.000 HD
ATOM      6  H   UNL     1     -10.903   5.373  -4.335  0.00  0.00    +0.000 HD
ENDBRANCH   1   3
BRANCH   1   7
ATOM      7  C   UNL     1      -9.451   7.444  -5.802  0.00  0.00    +0.000 C 
ATOM      8  H   UNL     1      -9.054   7.866  -4.873  0.00  0.00    +0.000 HD
ATOM      9  H   UNL     1     -10.483   7.793  -5.919  0.00  0.00    +0.000 HD
ATOM     10  H   UNL     1      -8.858   7.851  -6.628  0.00  0.00    +0.000 HD
ENDBRANCH   1   7
BRANCH   1  12
ATOM     11  O   UNL     1      -8.103   4.263  -4.547  0.00  0.00    +0.000 OA
ATOM     12  C   UNL     1      -8.328   5.430  -4.832  0.00  0.00    +0.000 C 
BRANCH  12  13
ATOM     13  O   UNL     1      -7.629   6.476  -4.320  0.00  0.00    +0.000 OA
ATOM     14  H   UNL     1      -7.009   6.858  -4.977  0.00  0.00    +0.000 HD
ENDBRANCH  12  13
ENDBRANCH   1  12
TORSDOF 4
ENDMDL
