MODEL 1
REMARK VINA RESULT:    -3.859      0.000      0.000
REMARK INTER + INTRA:          -4.590
REMARK INTER:                  -4.538
REMARK INTRA:                  -0.052
REMARK UNBOUND:                 0.059
REMARK  Name = 10430
REMARK  5 active torsions:
REMARK  status: ('A' for Active; 'I' for Inactive)
REMARK    1  A    between atoms: O_1  and  C_7
REMARK    2  A    between atoms: C_3  and  C_4
REMARK    3  A    between atoms: C_3  and  C_5
REMARK    4  A    between atoms: C_3  and  C_6
REMARK    5  A    between atoms: C_4  and  C_7
REMARK                            x       y       z     vdW  Elec       q    Type
REMARK                         _______ _______ _______ _____ _____    ______ ____
ROOT
ATOM      1  C   UNL     1      -3.312   6.853  -9.416  0.00  0.00    +0.000 C 
ATOM      2  H   UNL     1      -2.506   6.185  -9.091  0.00  0.00    +0.000 HD
ENDROOT
BRANCH   1   3
ATOM      3  C   UNL     1      -4.622   6.350  -8.806  0.00  0.00    +0.000 C 
ATOM      4  H   UNL     1      -4.459   5.482  -8.160  0.00  0.00    +0.000 HD
ATOM      5  H   UNL     1      -5.342   6.068  -9.583  0.00  0.00    +0.000 HD
ATOM      6  H   UNL     1      -5.083   7.128  -8.188  0.00  0.00    +0.000 HD
ENDBRANCH   1   3
BRANCH   1   7
ATOM      7  C   UNL     1      -3.004   8.258  -8.892  0.00  0.00    +0.000 C 
ATOM      8  H   UNL     1      -3.630   8.506  -8.027  0.00  0.00    +0.000 HD
ATOM      9  H   UNL     1      -1.954   8.340  -8.588  0.00  0.00    +0.000 HD
ATOM     10  H   UNL     1      -3.187   9.008  -9.669  0.00  0.00    +0.000 HD
ENDBRANCH   1   7
BRANCH   1  11
ATOM     11  C   UNL     1      -3.404   6.833 -10.949  0.00  0.00    +0.000 C 
ATOM     12  H   UNL     1      -4.273   7.406 -11.297  0.00  0.00    +0.000 HD
ATOM     13  H   UNL     1      -3.542   5.806 -11.309  0.00  0.00    +0.000 HD
BRANCH  11  15
ATOM     14  O   UNL     1      -2.094   8.469 -12.199  0.00  0.00    +0.000 OA
ATOM     15  C   UNL     1      -2.174   7.393 -11.624  0.00  0.00    +0.000 C 
BRANCH  15  16
ATOM     16  O   UNL     1      -1.130   6.538 -11.477  0.00  0.00    +0.000 OA
ATOM     17  H   UNL     1      -0.688   6.351 -12.332  0.00  0.00    +0.000 HD
ENDBRANCH  15  16
ENDBRANCH  11  15
ENDBRANCH   1  11
TORSDOF 5
ENDMDL
MODEL 2
REMARK VINA RESULT:    -3.706     12.603     13.534
REMARK INTER + INTRA:          -4.406
REMARK INTER:                  -4.361
REMARK INTRA:                  -0.045
REMARK UNBOUND:                 0.059
REMARK  Name = 10430
REMARK  5 active torsions:
REMARK  status: ('A' for Active; 'I' for Inactive)
REMARK    1  A    between atoms: O_1  and  C_7
REMARK    2  A    between atoms: C_3  and  C_4
REMARK    3  A    between atoms: C_3  and  C_5
REMARK    4  A    between atoms: C_3  and  C_6
REMARK    5  A    between atoms: C_4  and  C_7
REMARK                            x       y       z     vdW  Elec       q    Type
REMARK                         _______ _______ _______ _____ _____    ______ ____
ROOT
ATOM      1  C   UNL     1       4.511   9.412   1.304  0.00  0.00    +0.000 C 
ATOM      2  H   UNL     1       4.779  10.297   1.894  0.00  0.00    +0.000 HD
ENDROOT
BRANCH   1   3
ATOM      3  C   UNL     1       5.778   8.580   1.094  0.00  0.00    +0.000 C 
ATOM      4  H   UNL     1       5.718   7.618   1.612  0.00  0.00    +0.000 HD
ATOM      5  H   UNL     1       6.667   9.108   1.454  0.00  0.00    +0.000 HD
ATOM      6  H   UNL     1       5.924   8.363   0.030  0.00  0.00    +0.000 HD
ENDBRANCH   1   3
BRANCH   1   7
ATOM      7  C   UNL     1       3.485   8.603   2.101  0.00  0.00    +0.000 C 
ATOM      8  H   UNL     1       3.704   7.530   2.054  0.00  0.00    +0.000 HD
ATOM      9  H   UNL     1       3.483   8.904   3.154  0.00  0.00    +0.000 HD
ATOM     10  H   UNL     1       2.477   8.761   1.704  0.00  0.00    +0.000 HD
ENDBRANCH   1   7
BRANCH   1  11
ATOM     11  C   UNL     1       3.944   9.857  -0.053  0.00  0.00    +0.000 C 
ATOM     12  H   UNL     1       3.125   9.200  -0.370  0.00  0.00    +0.000 HD
ATOM     13  H   UNL     1       4.717   9.791  -0.829  0.00  0.00    +0.000 HD
BRANCH  11  15
ATOM     14  O   UNL     1       3.153  11.937   0.948  0.00  0.00    +0.000 OA
ATOM     15  C   UNL     1       3.427  11.277  -0.042  0.00  0.00    +0.000 C 
BRANCH  15  16
ATOM     16  O   UNL     1       3.334  11.750  -1.312  0.00  0.00    +0.000 OA
ATOM     17  H   UNL     1       3.521  11.053  -1.976  0.00  0.00    +0.000 HD
ENDBRANCH  15  16
ENDBRANCH  11  15
ENDBRANCH   1  11
TORSDOF 5
ENDMDL
MODEL 3
REMARK VINA RESULT:    -3.690      1.831      2.672
REMARK INTER + INTRA:          -4.386
REMARK INTER:                  -4.472
REMARK INTRA:                   0.086
REMARK UNBOUND:                 0.059
REMARK  Name = 10430
REMARK  5 active torsions:
REMARK  status: ('A' for Active; 'I' for Inactive)
REMARK    1  A    between atoms: O_1  and  C_7
REMARK    2  A    between atoms: C_3  and  C_4
REMARK    3  A    between atoms: C_3  and  C_5
REMARK    4  A    between atoms: C_3  and  C_6
REMARK    5  A    between atoms: C_4  and  C_7
REMARK                            x       y       z     vdW  Elec       q    Type
REMARK                         _______ _______ _______ _____ _____    ______ ____
ROOT
ATOM      1  C   UNL     1      -2.999   6.967  -9.905  0.00  0.00    +0.000 C 
ATOM      2  H   UNL     1      -2.694   6.163  -9.224  0.00  0.00    +0.000 HD
ENDROOT
BRANCH   1   3
ATOM      3  C   UNL     1      -2.095   6.914 -11.139  0.00  0.00    +0.000 C 
ATOM      4  H   UNL     1      -1.053   6.716 -10.867  0.00  0.00    +0.000 HD
ATOM      5  H   UNL     1      -2.130   7.853 -11.701  0.00  0.00    +0.000 HD
ATOM      6  H   UNL     1      -2.410   6.108 -11.812  0.00  0.00    +0.000 HD
ENDBRANCH   1   3
BRANCH   1   7
ATOM      7  C   UNL     1      -4.451   6.717 -10.317  0.00  0.00    +0.000 C 
ATOM      8  H   UNL     1      -5.137   7.377  -9.773  0.00  0.00    +0.000 HD
ATOM      9  H   UNL     1      -4.589   6.891 -11.390  0.00  0.00    +0.000 HD
ATOM     10  H   UNL     1      -4.739   5.681 -10.106  0.00  0.00    +0.000 HD
ENDBRANCH   1   7
BRANCH   1  11
ATOM     11  C   UNL     1      -2.841   8.321  -9.197  0.00  0.00    +0.000 C 
ATOM     12  H   UNL     1      -2.039   8.281  -8.450  0.00  0.00    +0.000 HD
ATOM     13  H   UNL     1      -3.760   8.577  -8.655  0.00  0.00    +0.000 HD
BRANCH  11  15
ATOM     14  O   UNL     1      -3.314   9.950 -10.951  0.00  0.00    +0.000 OA
ATOM     15  C   UNL     1      -2.538   9.456 -10.147  0.00  0.00    +0.000 C 
BRANCH  15  16
ATOM     16  O   UNL     1      -1.265   9.892  -9.964  0.00  0.00    +0.000 OA
ATOM     17  H   UNL     1      -1.179  10.852 -10.142  0.00  0.00    +0.000 HD
ENDBRANCH  15  16
ENDBRANCH  11  15
ENDBRANCH   1  11
TORSDOF 5
ENDMDL
MODEL 4
REMARK VINA RESULT:    -3.688     12.609     13.676
REMARK INTER + INTRA:          -4.384
REMARK INTER:                  -4.322
REMARK INTRA:                  -0.062
REMARK UNBOUND:                 0.059
REMARK  Name = 10430
REMARK  5 active torsions:
REMARK  status: ('A' for Active; 'I' for Inactive)
REMARK    1  A    between atoms: O_1  and  C_7
REMARK    2  A    between atoms: C_3  and  C_4
REMARK    3  A    between atoms: C_3  and  C_5
REMARK    4  A    between atoms: C_3  and  C_6
REMARK    5  A    between atoms: C_4  and  C_7
REMARK                            x       y       z     vdW  Elec       q    Type
REMARK                         _______ _______ _______ _____ _____    ______ ____
ROOT
ATOM      1  C   UNL     1       4.264  10.862  -0.485  0.00  0.00    +0.000 C 
ATOM      2  H   UNL     1       4.172  11.618   0.305  0.00  0.00    +0.000 HD
ENDROOT
BRANCH   1   3
ATOM      3  C   UNL     1       3.245  11.189  -1.578  0.00  0.00    +0.000 C 
ATOM      4  H   UNL     1       3.341  12.223  -1.922  0.00  0.00    +0.000 HD
ATOM      5  H   UNL     1       2.219  11.039  -1.226  0.00  0.00    +0.000 HD
ATOM      6  H   UNL     1       3.397  10.544  -2.451  0.00  0.00    +0.000 HD
ENDBRANCH   1   3
BRANCH   1   7
ATOM      7  C   UNL     1       5.681  10.943  -1.056  0.00  0.00    +0.000 C 
ATOM      8  H   UNL     1       6.414  10.511  -0.365  0.00  0.00    +0.000 HD
ATOM      9  H   UNL     1       5.751  10.402  -2.007  0.00  0.00    +0.000 HD
ATOM     10  H   UNL     1       5.964  11.985  -1.242  0.00  0.00    +0.000 HD
ENDBRANCH   1   7
BRANCH   1  11
ATOM     11  C   UNL     1       3.975   9.473   0.104  0.00  0.00    +0.000 C 
ATOM     12  H   UNL     1       4.719   8.741  -0.234  0.00  0.00    +0.000 HD
ATOM     13  H   UNL     1       2.999   9.109  -0.240  0.00  0.00    +0.000 HD
BRANCH  11  15
ATOM     14  O   UNL     1       4.585   8.696   2.336  0.00  0.00    +0.000 OA
ATOM     15  C   UNL     1       3.961   9.460   1.615  0.00  0.00    +0.000 C 
BRANCH  15  16
ATOM     16  O   UNL     1       3.170  10.460   2.084  0.00  0.00    +0.000 OA
ATOM     17  H   UNL     1       3.211  10.530   3.061  0.00  0.00    +0.000 HD
ENDBRANCH  15  16
ENDBRANCH  11  15
ENDBRANCH   1  11
TORSDOF 5
ENDMDL
MODEL 5
REMARK VINA RESULT:    -3.681     13.473     14.134
REMARK INTER + INTRA:          -4.376
REMARK INTER:                  -4.333
REMARK INTRA:                  -0.043
REMARK UNBOUND:                 0.059
REMARK  Name = 10430
REMARK  5 active torsions:
REMARK  status: ('A' for Active; 'I' for Inactive)
REMARK    1  A    between atoms: O_1  and  C_7
REMARK    2  A    between atoms: C_3  and  C_4
REMARK    3  A    between atoms: C_3  and  C_5
REMARK    4  A    between atoms: C_3  and  C_6
REMARK    5  A    between atoms: C_4  and  C_7
REMARK                            x       y       z     vdW  Elec       q    Type
REMARK                         _______ _______ _______ _____ _____    ______ ____
ROOT
ATOM      1  C   UNL     1       5.838   9.728   0.314  0.00  0.00    +0.000 C 
ATOM      2  H   UNL     1       6.139  10.050   1.318  0.00  0.00    +0.000 HD
ENDROOT
BRANCH   1   3
ATOM      3  C   UNL     1       6.269  10.808  -0.681  0.00  0.00    +0.000 C 
ATOM      4  H   UNL     1       7.298  10.656  -1.019  0.00  0.00    +0.000 HD
ATOM      5  H   UNL     1       6.197  11.808  -0.241  0.00  0.00    +0.000 HD
ATOM      6  H   UNL     1       5.631  10.787  -1.572  0.00  0.00    +0.000 HD
ENDBRANCH   1   3
BRANCH   1   7
ATOM      7  C   UNL     1       6.560   8.416  -0.001  0.00  0.00    +0.000 C 
ATOM      8  H   UNL     1       6.803   7.866   0.916  0.00  0.00    +0.000 HD
ATOM      9  H   UNL     1       5.938   7.770  -0.631  0.00  0.00    +0.000 HD
ATOM     10  H   UNL     1       7.495   8.609  -0.538  0.00  0.00    +0.000 HD
ENDBRANCH   1   7
BRANCH   1  11
ATOM     11  C   UNL     1       4.312   9.554   0.272  0.00  0.00    +0.000 C 
ATOM     12  H   UNL     1       4.030   8.518   0.498  0.00  0.00    +0.000 HD
ATOM     13  H   UNL     1       3.932   9.769  -0.735  0.00  0.00    +0.000 HD
BRANCH  11  15
ATOM     14  O   UNL     1       3.326  11.640   1.066  0.00  0.00    +0.000 OA
ATOM     15  C   UNL     1       3.585  10.458   1.239  0.00  0.00    +0.000 C 
BRANCH  15  16
ATOM     16  O   UNL     1       3.216   9.761   2.344  0.00  0.00    +0.000 OA
ATOM     17  H   UNL     1       2.609   9.023   2.124  0.00  0.00    +0.000 HD
ENDBRANCH  15  16
ENDBRANCH  11  15
ENDBRANCH   1  11
TORSDOF 5
ENDMDL
MODEL 6
REMARK VINA RESULT:    -3.644      8.044      8.785
REMARK INTER + INTRA:          -4.331
REMARK INTER:                  -4.270
REMARK INTRA:                  -0.061
REMARK UNBOUND:                 0.059
REMARK  Name = 10430
REMARK  5 active torsions:
REMARK  status: ('A' for Active; 'I' for Inactive)
REMARK    1  A    between atoms: O_1  and  C_7
REMARK    2  A    between atoms: C_3  and  C_4
REMARK    3  A    between atoms: C_3  and  C_5
REMARK    4  A    between atoms: C_3  and  C_6
REMARK    5  A    between atoms: C_4  and  C_7
REMARK                            x       y       z     vdW  Elec       q    Type
REMARK                         _______ _______ _______ _____ _____    ______ ____
ROOT
ATOM      1  C   UNL     1     -10.280   7.954  -5.516  0.00  0.00    +0.000 C 
ATOM      2  H   UNL     1      -9.639   8.298  -4.695  0.00  0.00    +0.000 HD
ENDROOT
BRANCH   1   3
ATOM      3  C   UNL     1     -11.706   7.813  -4.980  0.00  0.00    +0.000 C 
ATOM      4  H   UNL     1     -11.956   8.618  -4.283  0.00  0.00    +0.000 HD
ATOM      5  H   UNL     1     -11.845   6.857  -4.463  0.00  0.00    +0.000 HD
ATOM      6  H   UNL     1     -12.432   7.860  -5.800  0.00  0.00    +0.000 HD
ENDBRANCH   1   3
BRANCH   1   7
ATOM      7  C   UNL     1     -10.245   9.014  -6.620  0.00  0.00    +0.000 C 
ATOM      8  H   UNL     1     -11.210   9.525  -6.711  0.00  0.00    +0.000 HD
ATOM      9  H   UNL     1      -9.478   9.769  -6.412  0.00  0.00    +0.000 HD
ATOM     10  H   UNL     1     -10.011   8.556  -7.587  0.00  0.00    +0.000 HD
ENDBRANCH   1   7
BRANCH   1  11
ATOM     11  C   UNL     1      -9.772   6.596  -6.025  0.00  0.00    +0.000 C 
ATOM     12  H   UNL     1      -9.372   6.684  -7.042  0.00  0.00    +0.000 HD
ATOM     13  H   UNL     1     -10.598   5.876  -6.074  0.00  0.00    +0.000 HD
BRANCH  11  15
ATOM     14  O   UNL     1      -8.654   4.850  -4.739  0.00  0.00    +0.000 OA
ATOM     15  C   UNL     1      -8.696   6.000  -5.149  0.00  0.00    +0.000 C 
BRANCH  15  16
ATOM     16  O   UNL     1      -7.734   6.924  -4.895  0.00  0.00    +0.000 OA
ATOM     17  H   UNL     1      -7.338   6.804  -4.006  0.00  0.00    +0.000 HD
ENDBRANCH  15  16
ENDBRANCH  11  15
ENDBRANCH   1  11
TORSDOF 5
ENDMDL
MODEL 7
REMARK VINA RESULT:    -3.631     13.054     13.596
REMARK INTER + INTRA:          -4.315
REMARK INTER:                  -4.254
REMARK INTRA:                  -0.061
REMARK UNBOUND:                 0.059
REMARK  Name = 10430
REMARK  5 active torsions:
REMARK  status: ('A' for Active; 'I' for Inactive)
REMARK    1  A    between atoms: O_1  and  C_7
REMARK    2  A    between atoms: C_3  and  C_4
REMARK    3  A    between atoms: C_3  and  C_5
REMARK    4  A    between atoms: C_3  and  C_6
REMARK    5  A    between atoms: C_4  and  C_7
REMARK                            x       y       z     vdW  Elec       q    Type
REMARK                         _______ _______ _______ _____ _____    ______ ____
ROOT
ATOM      1  C   UNL     1       4.218  10.614   0.903  0.00  0.00    +0.000 C 
ATOM      2  H   UNL     1       4.809  11.117   1.678  0.00  0.00    +0.000 HD
ENDROOT
BRANCH   1   3
ATOM      3  C   UNL     1       3.466   9.453   1.557  0.00  0.00    +0.000 C 
ATOM      4  H   UNL     1       3.732   8.493   1.102  0.00  0.00    +0.000 HD
ATOM      5  H   UNL     1       2.382   9.582   1.474  0.00  0.00    +0.000 HD
ATOM      6  H   UNL     1       3.716   9.384   2.622  0.00  0.00    +0.000 HD
ENDBRANCH   1   3
BRANCH   1   7
ATOM      7  C   UNL     1       3.218  11.625   0.338  0.00  0.00    +0.000 C 
ATOM      8  H   UNL     1       3.552  12.655   0.512  0.00  0.00    +0.000 HD
ATOM      9  H   UNL     1       3.091  11.487  -0.742  0.00  0.00    +0.000 HD
ATOM     10  H   UNL     1       2.237  11.503   0.809  0.00  0.00    +0.000 HD
ENDBRANCH   1   7
BRANCH   1  11
ATOM     11  C   UNL     1       5.158  10.083  -0.189  0.00  0.00    +0.000 C 
ATOM     12  H   UNL     1       4.587   9.667  -1.029  0.00  0.00    +0.000 HD
ATOM     13  H   UNL     1       5.776   9.266   0.204  0.00  0.00    +0.000 HD
BRANCH  11  15
ATOM     14  O   UNL     1       6.687  11.982  -0.082  0.00  0.00    +0.000 OA
ATOM     15  C   UNL     1       6.090  11.140  -0.735  0.00  0.00    +0.000 C 
BRANCH  15  16
ATOM     16  O   UNL     1       6.208  11.008  -2.081  0.00  0.00    +0.000 OA
ATOM     17  H   UNL     1       5.986  11.840  -2.551  0.00  0.00    +0.000 HD
ENDBRANCH  15  16
ENDBRANCH  11  15
ENDBRANCH   1  11
TORSDOF 5
ENDMDL
MODEL 8
REMARK VINA RESULT:    -3.618     25.414     25.827
REMARK INTER + INTRA:          -4.300
REMARK INTER:                  -4.251
REMARK INTRA:                  -0.048
REMARK UNBOUND:                 0.059
REMARK  Name = 10430
REMARK  5 active torsions:
REMARK  status: ('A' for Active; 'I' for Inactive)
REMARK    1  A    between atoms: O_1  and  C_7
REMARK    2  A    between atoms: C_3  and  C_4
REMARK    3  A    between atoms: C_3  and  C_5
REMARK    4  A    between atoms: C_3  and  C_6
REMARK    5  A    between atoms: C_4  and  C_7
REMARK                            x       y       z     vdW  Elec       q    Type
REMARK                         _______ _______ _______ _____ _____    ______ ____
ROOT
ATOM      1  C   UNL     1     -20.863  -2.370   4.965  0.00  0.00    +0.000 C 
ATOM      2  H   UNL     1     -20.247  -2.271   4.063  0.00  0.00    +0.000 HD
ENDROOT
BRANCH   1   3
ATOM      3  C   UNL     1     -20.557  -1.184   5.882  0.00  0.00    +0.000 C 
ATOM      4  H   UNL     1     -20.067  -1.505   6.807  0.00  0.00    +0.000 HD
ATOM      5  H   UNL     1     -21.469  -0.640   6.150  0.00  0.00    +0.000 HD
ATOM      6  H   UNL     1     -19.879  -0.479   5.387  0.00  0.00    +0.000 HD
ENDBRANCH   1   3
BRANCH   1   7
ATOM      7  C   UNL     1     -22.334  -2.331   4.543  0.00  0.00    +0.000 C 
ATOM      8  H   UNL     1     -22.996  -2.529   5.393  0.00  0.00    +0.000 HD
ATOM      9  H   UNL     1     -22.595  -1.351   4.128  0.00  0.00    +0.000 HD
ATOM     10  H   UNL     1     -22.534  -3.085   3.774  0.00  0.00    +0.000 HD
ENDBRANCH   1   7
BRANCH   1  11
ATOM     11  C   UNL     1     -20.517  -3.687   5.676  0.00  0.00    +0.000 C 
ATOM     12  H   UNL     1     -21.427  -4.245   5.931  0.00  0.00    +0.000 HD
ATOM     13  H   UNL     1     -19.998  -3.485   6.621  0.00  0.00    +0.000 HD
BRANCH  11  15
ATOM     14  O   UNL     1     -19.597  -4.649   3.631  0.00  0.00    +0.000 OA
ATOM     15  C   UNL     1     -19.631  -4.591   4.851  0.00  0.00    +0.000 C 
BRANCH  15  16
ATOM     16  O   UNL     1     -18.829  -5.326   5.663  0.00  0.00    +0.000 OA
ATOM     17  H   UNL     1     -18.740  -6.251   5.348  0.00  0.00    +0.000 HD
ENDBRANCH  15  16
ENDBRANCH  11  15
ENDBRANCH   1  11
TORSDOF 5
ENDMDL
MODEL 9
REMARK VINA RESULT:    -3.580      7.833      8.563
REMARK INTER + INTRA:          -4.254
REMARK INTER:                  -4.203
REMARK INTRA:                  -0.051
REMARK UNBOUND:                 0.059
REMARK  Name = 10430
REMARK  5 active torsions:
REMARK  status: ('A' for Active; 'I' for Inactive)
REMARK    1  A    between atoms: O_1  and  C_7
REMARK    2  A    between atoms: C_3  and  C_4
REMARK    3  A    between atoms: C_3  and  C_5
REMARK    4  A    between atoms: C_3  and  C_6
REMARK    5  A    between atoms: C_4  and  C_7
REMARK                            x       y       z     vdW  Elec       q    Type
REMARK                         _______ _______ _______ _____ _____    ______ ____
ROOT
ATOM      1  C   UNL     1      -9.503   4.206  -5.352  0.00  0.00    +0.000 C 
ATOM      2  H   UNL     1     -10.190   4.742  -4.685  0.00  0.00    +0.000 HD
ENDROOT
BRANCH   1   3
ATOM      3  C   UNL     1      -8.703   3.210  -4.510  0.00  0.00    +0.000 C 
ATOM      4  H   UNL     1      -8.083   2.560  -5.135  0.00  0.00    +0.000 HD
ATOM      5  H   UNL     1      -9.362   2.577  -3.906  0.00  0.00    +0.000 HD
ATOM      6  H   UNL     1      -8.028   3.738  -3.827  0.00  0.00    +0.000 HD
ENDBRANCH   1   3
BRANCH   1   7
ATOM      7  C   UNL     1     -10.339   3.454  -6.390  0.00  0.00    +0.000 C 
ATOM      8  H   UNL     1     -10.391   4.007  -7.334  0.00  0.00    +0.000 HD
ATOM      9  H   UNL     1      -9.909   2.467  -6.596  0.00  0.00    +0.000 HD
ATOM     10  H   UNL     1     -11.361   3.304  -6.027  0.00  0.00    +0.000 HD
ENDBRANCH   1   7
BRANCH   1  11
ATOM     11  C   UNL     1      -8.553   5.213  -6.018  0.00  0.00    +0.000 C 
ATOM     12  H   UNL     1      -8.808   5.350  -7.077  0.00  0.00    +0.000 HD
ATOM     13  H   UNL     1      -7.522   4.839  -5.992  0.00  0.00    +0.000 HD
BRANCH  11  15
ATOM     14  O   UNL     1      -9.336   7.485  -5.599  0.00  0.00    +0.000 OA
ATOM     15  C   UNL     1      -8.566   6.570  -5.354  0.00  0.00    +0.000 C 
BRANCH  15  16
ATOM     16  O   UNL     1      -7.604   6.631  -4.398  0.00  0.00    +0.000 OA
ATOM     17  H   UNL     1      -7.095   7.468  -4.445  0.00  0.00    +0.000 HD
ENDBRANCH  15  16
ENDBRANCH  11  15
ENDBRANCH   1  11
TORSDOF 5
ENDMDL
MODEL 10
REMARK VINA RESULT:    -3.363     31.658     32.761
REMARK INTER + INTRA:          -3.993
REMARK INTER:                  -4.052
REMARK INTRA:                   0.059
REMARK UNBOUND:                 0.059
REMARK  Name = 10430
REMARK  5 active torsions:
REMARK  status: ('A' for Active; 'I' for Inactive)
REMARK    1  A    between atoms: O_1  and  C_7
REMARK    2  A    between atoms: C_3  and  C_4
REMARK    3  A    between atoms: C_3  and  C_5
REMARK    4  A    between atoms: C_3  and  C_6
REMARK    5  A    between atoms: C_4  and  C_7
REMARK                            x       y       z     vdW  Elec       q    Type
REMARK                         _______ _______ _______ _____ _____    ______ ____
ROOT
ATOM      1  C   UNL     1     -10.528 -11.480  16.538  0.00  0.00    +0.000 C 
ATOM      2  H   UNL     1     -10.164 -11.279  17.553  0.00  0.00    +0.000 HD
ENDROOT
BRANCH   1   3
ATOM      3  C   UNL     1     -11.679 -12.483  16.634  0.00  0.00    +0.000 C 
ATOM      4  H   UNL     1     -11.332 -13.511  16.493  0.00  0.00    +0.000 HD
ATOM      5  H   UNL     1     -12.452 -12.277  15.886  0.00  0.00    +0.000 HD
ATOM      6  H   UNL     1     -12.149 -12.436  17.623  0.00  0.00    +0.000 HD
ENDBRANCH   1   3
BRANCH   1   7
ATOM      7  C   UNL     1     -11.037 -10.163  15.947  0.00  0.00    +0.000 C 
ATOM      8  H   UNL     1     -10.883  -9.330  16.642  0.00  0.00    +0.000 HD
ATOM      9  H   UNL     1     -10.515  -9.927  15.012  0.00  0.00    +0.000 HD
ATOM     10  H   UNL     1     -12.108 -10.227  15.726  0.00  0.00    +0.000 HD
ENDBRANCH   1   7
BRANCH   1  11
ATOM     11  C   UNL     1      -9.387 -12.070  15.695  0.00  0.00    +0.000 C 
ATOM     12  H   UNL     1      -9.782 -12.672  14.868  0.00  0.00    +0.000 HD
ATOM     13  H   UNL     1      -8.771 -12.742  16.306  0.00  0.00    +0.000 HD
BRANCH  11  15
ATOM     14  O   UNL     1      -8.457 -10.640  13.950  0.00  0.00    +0.000 OA
ATOM     15  C   UNL     1      -8.474 -11.016  15.112  0.00  0.00    +0.000 C 
BRANCH  15  16
ATOM     16  O   UNL     1      -7.675 -10.501  16.082  0.00  0.00    +0.000 OA
ATOM     17  H   UNL     1      -7.896 -10.862  16.967  0.00  0.00    +0.000 HD
ENDBRANCH  15  16
ENDBRANCH  11  15
ENDBRANCH   1  11
TORSDOF 5
ENDMDL
