MODEL 1
REMARK VINA RESULT:    -4.624      0.000      0.000
REMARK INTER + INTRA:          -4.895
REMARK INTER:                  -4.895
REMARK INTRA:                   0.000
REMARK UNBOUND:                 0.000
REMARK  Name = 8369
REMARK  2 active torsions:
REMARK  status: ('A' for Active; 'I' for Inactive)
REMARK    1  A    between atoms: O_2  and  C_5
REMARK    2  A    between atoms: C_4  and  C_6
REMARK                            x       y       z     vdW  Elec       q    Type
REMARK                         _______ _______ _______ _____ _____    ______ ____
ROOT
ATOM      1  O   UNL     1      -9.832 -12.591  15.800  0.00  0.00    +0.000 OA
ATOM      2  O   UNL     1     -11.753  -9.047  16.060  0.00  0.00    +0.000 OA
ATOM      3  C   UNL     1      -9.228 -11.442  15.299  0.00  0.00    +0.000 A 
ATOM      4  C   UNL     1      -9.819 -10.230  15.353  0.00  0.00    +0.000 A 
ATOM      5  C   UNL     1     -11.165 -10.119  15.979  0.00  0.00    +0.000 A 
ATOM      6  C   UNL     1     -11.768 -11.361  16.500  0.00  0.00    +0.000 A 
ATOM      7  C   UNL     1     -11.072 -12.490  16.375  0.00  0.00    +0.000 A 
ATOM      8  H   UNL     1     -12.745 -11.326  16.963  0.00  0.00    +0.000 HD
ATOM      9  H   UNL     1     -11.420 -13.452  16.722  0.00  0.00    +0.000 HD
ENDROOT
BRANCH   3  10
ATOM     10  C   UNL     1      -7.880 -11.693  14.700  0.00  0.00    +0.000 C 
ATOM     11  H   UNL     1      -7.807 -12.729  14.353  0.00  0.00    +0.000 HD
ATOM     12  H   UNL     1      -7.063 -11.490  15.398  0.00  0.00    +0.000 HD
ATOM     13  H   UNL     1      -7.718 -11.037  13.837  0.00  0.00    +0.000 HD
ENDBRANCH   3  10
BRANCH   4  14
ATOM     14  O   UNL     1      -9.229  -9.089  14.858  0.00  0.00    +0.000 OA
ATOM     15  H   UNL     1      -8.956  -8.515  15.591  0.00  0.00    +0.000 HD
ENDBRANCH   4  14
TORSDOF 2
ENDMDL
MODEL 2
REMARK VINA RESULT:    -4.481     28.070     29.451
REMARK INTER + INTRA:          -4.743
REMARK INTER:                  -4.743
REMARK INTRA:                   0.000
REMARK UNBOUND:                 0.000
REMARK  Name = 8369
REMARK  2 active torsions:
REMARK  status: ('A' for Active; 'I' for Inactive)
REMARK    1  A    between atoms: O_2  and  C_5
REMARK    2  A    between atoms: C_4  and  C_6
REMARK                            x       y       z     vdW  Elec       q    Type
REMARK                         _______ _______ _______ _____ _____    ______ ____
ROOT
ATOM      1  O   UNL     1       3.162  10.393   1.838  0.00  0.00    +0.000 OA
ATOM      2  O   UNL     1       6.395   8.125   0.988  0.00  0.00    +0.000 OA
ATOM      3  C   UNL     1       3.945  10.698   0.729  0.00  0.00    +0.000 A 
ATOM      4  C   UNL     1       5.038   9.981   0.394  0.00  0.00    +0.000 A 
ATOM      5  C   UNL     1       5.415   8.815   1.240  0.00  0.00    +0.000 A 
ATOM      6  C   UNL     1       4.556   8.526   2.404  0.00  0.00    +0.000 A 
ATOM      7  C   UNL     1       3.509   9.322   2.619  0.00  0.00    +0.000 A 
ATOM      8  H   UNL     1       4.793   7.689   3.048  0.00  0.00    +0.000 HD
ATOM      9  H   UNL     1       2.819   9.198   3.440  0.00  0.00    +0.000 HD
ENDROOT
BRANCH   3  10
ATOM     10  C   UNL     1       3.455  11.888  -0.034  0.00  0.00    +0.000 C 
ATOM     11  H   UNL     1       2.372  11.822  -0.184  0.00  0.00    +0.000 HD
ATOM     12  H   UNL     1       3.946  12.000  -1.004  0.00  0.00    +0.000 HD
ATOM     13  H   UNL     1       3.661  12.809   0.524  0.00  0.00    +0.000 HD
ENDBRANCH   3  10
BRANCH   4  14
ATOM     14  O   UNL     1       5.818  10.277  -0.701  0.00  0.00    +0.000 OA
ATOM     15  H   UNL     1       6.526   9.619  -0.788  0.00  0.00    +0.000 HD
ENDBRANCH   4  14
TORSDOF 2
ENDMDL
MODEL 3
REMARK VINA RESULT:    -4.481     32.327     33.528
REMARK INTER + INTRA:          -4.742
REMARK INTER:                  -4.742
REMARK INTRA:                   0.000
REMARK UNBOUND:                 0.000
REMARK  Name = 8369
REMARK  2 active torsions:
REMARK  status: ('A' for Active; 'I' for Inactive)
REMARK    1  A    between atoms: O_2  and  C_5
REMARK    2  A    between atoms: C_4  and  C_6
REMARK                            x       y       z     vdW  Elec       q    Type
REMARK                         _______ _______ _______ _____ _____    ______ ____
ROOT
ATOM      1  O   UNL     1      -2.353   6.607 -11.053  0.00  0.00    +0.000 OA
ATOM      2  O   UNL     1      -1.013  10.412 -10.846  0.00  0.00    +0.000 OA
ATOM      3  C   UNL     1      -2.779   7.432 -10.017  0.00  0.00    +0.000 A 
ATOM      4  C   UNL     1      -2.366   8.710  -9.892  0.00  0.00    +0.000 A 
ATOM      5  C   UNL     1      -1.424   9.260 -10.904  0.00  0.00    +0.000 A 
ATOM      6  C   UNL     1      -0.998   8.352 -11.987  0.00  0.00    +0.000 A 
ATOM      7  C   UNL     1      -1.483   7.110 -11.985  0.00  0.00    +0.000 A 
ATOM      8  H   UNL     1      -0.313   8.709 -12.744  0.00  0.00    +0.000 HD
ATOM      9  H   UNL     1      -1.237   6.368 -12.730  0.00  0.00    +0.000 HD
ENDROOT
BRANCH   3  10
ATOM     10  C   UNL     1      -3.724   6.757  -9.073  0.00  0.00    +0.000 C 
ATOM     11  H   UNL     1      -3.251   6.621  -8.096  0.00  0.00    +0.000 HD
ATOM     12  H   UNL     1      -4.070   5.788  -9.443  0.00  0.00    +0.000 HD
ATOM     13  H   UNL     1      -4.622   7.370  -8.929  0.00  0.00    +0.000 HD
ENDBRANCH   3  10
BRANCH   4  14
ATOM     14  O   UNL     1      -2.783   9.532  -8.868  0.00  0.00    +0.000 OA
ATOM     15  H   UNL     1      -3.079  10.382  -9.229  0.00  0.00    +0.000 HD
ENDBRANCH   4  14
TORSDOF 2
ENDMDL
MODEL 4
REMARK VINA RESULT:    -4.409     32.632     33.750
REMARK INTER + INTRA:          -4.666
REMARK INTER:                  -4.666
REMARK INTRA:                   0.000
REMARK UNBOUND:                 0.000
REMARK  Name = 8369
REMARK  2 active torsions:
REMARK  status: ('A' for Active; 'I' for Inactive)
REMARK    1  A    between atoms: O_2  and  C_5
REMARK    2  A    between atoms: C_4  and  C_6
REMARK                            x       y       z     vdW  Elec       q    Type
REMARK                         _______ _______ _______ _____ _____    ______ ____
ROOT
ATOM      1  O   UNL     1      -1.804   7.080 -11.731  0.00  0.00    +0.000 OA
ATOM      2  O   UNL     1      -2.721   9.528  -8.651  0.00  0.00    +0.000 OA
ATOM      3  C   UNL     1      -1.205   8.333 -11.644  0.00  0.00    +0.000 A 
ATOM      4  C   UNL     1      -1.471   9.196 -10.642  0.00  0.00    +0.000 A 
ATOM      5  C   UNL     1      -2.438   8.789  -9.586  0.00  0.00    +0.000 A 
ATOM      6  C   UNL     1      -3.049   7.453  -9.716  0.00  0.00    +0.000 A 
ATOM      7  C   UNL     1      -2.697   6.705 -10.761  0.00  0.00    +0.000 A 
ATOM      8  H   UNL     1      -3.759   7.116  -8.971  0.00  0.00    +0.000 HD
ATOM      9  H   UNL     1      -3.084   5.714 -10.949  0.00  0.00    +0.000 HD
ENDROOT
BRANCH   3  10
ATOM     10  C   UNL     1      -0.254   8.613 -12.765  0.00  0.00    +0.000 C 
ATOM     11  H   UNL     1      -0.452   9.602 -13.192  0.00  0.00    +0.000 HD
ATOM     12  H   UNL     1      -0.303   7.863 -13.559  0.00  0.00    +0.000 HD
ATOM     13  H   UNL     1       0.779   8.607 -12.399  0.00  0.00    +0.000 HD
ENDBRANCH   3  10
BRANCH   4  14
ATOM     14  O   UNL     1      -0.883  10.437 -10.551  0.00  0.00    +0.000 OA
ATOM     15  H   UNL     1      -0.234  10.547 -11.264  0.00  0.00    +0.000 HD
ENDBRANCH   4  14
TORSDOF 2
ENDMDL
MODEL 5
REMARK VINA RESULT:    -4.291      1.830      2.855
REMARK INTER + INTRA:          -4.542
REMARK INTER:                  -4.542
REMARK INTRA:                   0.000
REMARK UNBOUND:                 0.000
REMARK  Name = 8369
REMARK  2 active torsions:
REMARK  status: ('A' for Active; 'I' for Inactive)
REMARK    1  A    between atoms: O_2  and  C_5
REMARK    2  A    between atoms: C_4  and  C_6
REMARK                            x       y       z     vdW  Elec       q    Type
REMARK                         _______ _______ _______ _____ _____    ______ ____
ROOT
ATOM      1  O   UNL     1     -10.270 -11.317  15.333  0.00  0.00    +0.000 OA
ATOM      2  O   UNL     1      -9.529 -12.806  19.015  0.00  0.00    +0.000 OA
ATOM      3  C   UNL     1      -8.989 -11.757  15.654  0.00  0.00    +0.000 A 
ATOM      4  C   UNL     1      -8.678 -12.261  16.866  0.00  0.00    +0.000 A 
ATOM      5  C   UNL     1      -9.748 -12.357  17.897  0.00  0.00    +0.000 A 
ATOM      6  C   UNL     1     -11.091 -11.882  17.515  0.00  0.00    +0.000 A 
ATOM      7  C   UNL     1     -11.255 -11.403  16.282  0.00  0.00    +0.000 A 
ATOM      8  H   UNL     1     -11.899 -11.932  18.233  0.00  0.00    +0.000 HD
ATOM      9  H   UNL     1     -12.195 -11.031  15.902  0.00  0.00    +0.000 HD
ENDROOT
BRANCH   3  10
ATOM     10  C   UNL     1      -8.013 -11.607  14.530  0.00  0.00    +0.000 C 
ATOM     11  H   UNL     1      -8.519 -11.229  13.636  0.00  0.00    +0.000 HD
ATOM     12  H   UNL     1      -7.503 -12.543  14.286  0.00  0.00    +0.000 HD
ATOM     13  H   UNL     1      -7.228 -10.890  14.800  0.00  0.00    +0.000 HD
ENDBRANCH   3  10
BRANCH   4  14
ATOM     14  O   UNL     1      -7.413 -12.696  17.191  0.00  0.00    +0.000 OA
ATOM     15  H   UNL     1      -6.953 -12.998  16.392  0.00  0.00    +0.000 HD
ENDBRANCH   4  14
TORSDOF 2
ENDMDL
MODEL 6
REMARK VINA RESULT:    -4.218     25.828     26.919
REMARK INTER + INTRA:          -4.464
REMARK INTER:                  -4.464
REMARK INTRA:                   0.000
REMARK UNBOUND:                 0.000
REMARK  Name = 8369
REMARK  2 active torsions:
REMARK  status: ('A' for Active; 'I' for Inactive)
REMARK    1  A    between atoms: O_2  and  C_5
REMARK    2  A    between atoms: C_4  and  C_6
REMARK                            x       y       z     vdW  Elec       q    Type
REMARK                         _______ _______ _______ _____ _____    ______ ____
ROOT
ATOM      1  O   UNL     1     -11.035   6.091  -5.977  0.00  0.00    +0.000 OA
ATOM      2  O   UNL     1      -7.890   4.069  -4.446  0.00  0.00    +0.000 OA
ATOM      3  C   UNL     1      -9.874   6.778  -5.636  0.00  0.00    +0.000 A 
ATOM      4  C   UNL     1      -8.792   6.160  -5.119  0.00  0.00    +0.000 A 
ATOM      5  C   UNL     1      -8.840   4.687  -4.911  0.00  0.00    +0.000 A 
ATOM      6  C   UNL     1     -10.089   3.998  -5.289  0.00  0.00    +0.000 A 
ATOM      7  C   UNL     1     -11.082   4.734  -5.786  0.00  0.00    +0.000 A 
ATOM      8  H   UNL     1     -10.168   2.926  -5.155  0.00  0.00    +0.000 HD
ATOM      9  H   UNL     1     -12.035   4.330  -6.092  0.00  0.00    +0.000 HD
ENDROOT
BRANCH   3  10
ATOM     10  C   UNL     1      -9.958   8.249  -5.896  0.00  0.00    +0.000 C 
ATOM     11  H   UNL     1     -10.745   8.698  -5.282  0.00  0.00    +0.000 HD
ATOM     12  H   UNL     1     -10.147   8.482  -6.948  0.00  0.00    +0.000 HD
ATOM     13  H   UNL     1      -9.011   8.736  -5.638  0.00  0.00    +0.000 HD
ENDBRANCH   3  10
BRANCH   4  14
ATOM     14  O   UNL     1      -7.641   6.834  -4.777  0.00  0.00    +0.000 OA
ATOM     15  H   UNL     1      -7.733   7.774  -4.995  0.00  0.00    +0.000 HD
ENDBRANCH   4  14
TORSDOF 2
ENDMDL
MODEL 7
REMARK VINA RESULT:    -4.132     26.016     27.016
REMARK INTER + INTRA:          -4.373
REMARK INTER:                  -4.373
REMARK INTRA:                   0.000
REMARK UNBOUND:                 0.000
REMARK  Name = 8369
REMARK  2 active torsions:
REMARK  status: ('A' for Active; 'I' for Inactive)
REMARK    1  A    between atoms: O_2  and  C_5
REMARK    2  A    between atoms: C_4  and  C_6
REMARK                            x       y       z     vdW  Elec       q    Type
REMARK                         _______ _______ _______ _____ _____    ______ ____
ROOT
ATOM      1  O   UNL     1     -10.600   4.505  -5.312  0.00  0.00    +0.000 OA
ATOM      2  O   UNL     1      -9.850   8.457  -5.691  0.00  0.00    +0.000 OA
ATOM      3  C   UNL     1      -9.314   4.988  -5.086  0.00  0.00    +0.000 A 
ATOM      4  C   UNL     1      -9.000   6.295  -5.199  0.00  0.00    +0.000 A 
ATOM      5  C   UNL     1     -10.072   7.258  -5.573  0.00  0.00    +0.000 A 
ATOM      6  C   UNL     1     -11.420   6.705  -5.801  0.00  0.00    +0.000 A 
ATOM      7  C   UNL     1     -11.587   5.391  -5.658  0.00  0.00    +0.000 A 
ATOM      8  H   UNL     1     -12.230   7.369  -6.075  0.00  0.00    +0.000 HD
ATOM      9  H   UNL     1     -12.531   4.886  -5.801  0.00  0.00    +0.000 HD
ENDROOT
BRANCH   3  10
ATOM     10  C   UNL     1      -8.336   3.917  -4.716  0.00  0.00    +0.000 C 
ATOM     11  H   UNL     1      -8.521   3.015  -5.308  0.00  0.00    +0.000 HD
ATOM     12  H   UNL     1      -8.369   3.664  -3.653  0.00  0.00    +0.000 HD
ATOM     13  H   UNL     1      -7.312   4.249  -4.922  0.00  0.00    +0.000 HD
ENDBRANCH   3  10
BRANCH   4  14
ATOM     14  O   UNL     1      -7.730   6.779  -4.979  0.00  0.00    +0.000 OA
ATOM     15  H   UNL     1      -7.294   6.955  -5.828  0.00  0.00    +0.000 HD
ENDBRANCH   4  14
TORSDOF 2
ENDMDL
MODEL 8
REMARK VINA RESULT:    -4.126     29.624     31.126
REMARK INTER + INTRA:          -4.367
REMARK INTER:                  -4.367
REMARK INTRA:                   0.000
REMARK UNBOUND:                 0.000
REMARK  Name = 8369
REMARK  2 active torsions:
REMARK  status: ('A' for Active; 'I' for Inactive)
REMARK    1  A    between atoms: O_2  and  C_5
REMARK    2  A    between atoms: C_4  and  C_6
REMARK                            x       y       z     vdW  Elec       q    Type
REMARK                         _______ _______ _______ _____ _____    ______ ____
ROOT
ATOM      1  O   UNL     1       4.966   9.653   0.891  0.00  0.00    +0.000 OA
ATOM      2  O   UNL     1       8.693   9.839  -0.659  0.00  0.00    +0.000 OA
ATOM      3  C   UNL     1       5.196  10.394  -0.264  0.00  0.00    +0.000 A 
ATOM      4  C   UNL     1       6.417  10.497  -0.829  0.00  0.00    +0.000 A 
ATOM      5  C   UNL     1       7.560   9.785  -0.195  0.00  0.00    +0.000 A 
ATOM      6  C   UNL     1       7.272   9.009   1.027  0.00  0.00    +0.000 A 
ATOM      7  C   UNL     1       6.018   8.998   1.477  0.00  0.00    +0.000 A 
ATOM      8  H   UNL     1       8.074   8.475   1.521  0.00  0.00    +0.000 HD
ATOM      9  H   UNL     1       5.701   8.463   2.360  0.00  0.00    +0.000 HD
ENDROOT
BRANCH   3  10
ATOM     10  C   UNL     1       3.965  11.056  -0.798  0.00  0.00    +0.000 C 
ATOM     11  H   UNL     1       4.162  12.112  -1.007  0.00  0.00    +0.000 HD
ATOM     12  H   UNL     1       3.114  10.977  -0.117  0.00  0.00    +0.000 HD
ATOM     13  H   UNL     1       3.654  10.581  -1.736  0.00  0.00    +0.000 HD
ENDBRANCH   3  10
BRANCH   4  14
ATOM     14  O   UNL     1       6.652  11.230  -1.970  0.00  0.00    +0.000 OA
ATOM     15  H   UNL     1       6.578  12.177  -1.773  0.00  0.00    +0.000 HD
ENDBRANCH   4  14
TORSDOF 2
ENDMDL
MODEL 9
REMARK VINA RESULT:    -4.080     32.578     33.910
REMARK INTER + INTRA:          -4.318
REMARK INTER:                  -4.318
REMARK INTRA:                   0.000
REMARK UNBOUND:                 0.000
REMARK  Name = 8369
REMARK  2 active torsions:
REMARK  status: ('A' for Active; 'I' for Inactive)
REMARK    1  A    between atoms: O_2  and  C_5
REMARK    2  A    between atoms: C_4  and  C_6
REMARK                            x       y       z     vdW  Elec       q    Type
REMARK                         _______ _______ _______ _____ _____    ______ ____
ROOT
ATOM      1  O   UNL     1       1.856  -1.724 -12.992  0.00  0.00    +0.000 OA
ATOM      2  O   UNL     1       4.985   0.159 -14.720  0.00  0.00    +0.000 OA
ATOM      3  C   UNL     1       1.734  -0.391 -13.373  0.00  0.00    +0.000 A 
ATOM      4  C   UNL     1       2.742   0.293 -13.952  0.00  0.00    +0.000 A 
ATOM      5  C   UNL     1       4.033  -0.407 -14.197  0.00  0.00    +0.000 A 
ATOM      6  C   UNL     1       4.119  -1.819 -13.781  0.00  0.00    +0.000 A 
ATOM      7  C   UNL     1       3.044  -2.369 -13.216  0.00  0.00    +0.000 A 
ATOM      8  H   UNL     1       5.039  -2.367 -13.940  0.00  0.00    +0.000 HD
ATOM      9  H   UNL     1       3.002  -3.393 -12.876  0.00  0.00    +0.000 HD
ENDROOT
BRANCH   3  10
ATOM     10  C   UNL     1       0.388   0.190 -13.071  0.00  0.00    +0.000 C 
ATOM     11  H   UNL     1       0.232   1.106 -13.651  0.00  0.00    +0.000 HD
ATOM     12  H   UNL     1       0.250   0.409 -12.009  0.00  0.00    +0.000 HD
ATOM     13  H   UNL     1      -0.403  -0.519 -13.345  0.00  0.00    +0.000 HD
ENDBRANCH   3  10
BRANCH   4  14
ATOM     14  O   UNL     1       2.629   1.613 -14.329  0.00  0.00    +0.000 OA
ATOM     15  H   UNL     1       2.429   1.667 -15.277  0.00  0.00    +0.000 HD
ENDBRANCH   4  14
TORSDOF 2
ENDMDL
MODEL 10
REMARK VINA RESULT:    -4.048      1.511      2.915
REMARK INTER + INTRA:          -4.284
REMARK INTER:                  -4.284
REMARK INTRA:                   0.000
REMARK UNBOUND:                 0.000
REMARK  Name = 8369
REMARK  2 active torsions:
REMARK  status: ('A' for Active; 'I' for Inactive)
REMARK    1  A    between atoms: O_2  and  C_5
REMARK    2  A    between atoms: C_4  and  C_6
REMARK                            x       y       z     vdW  Elec       q    Type
REMARK                         _______ _______ _______ _____ _____    ______ ____
ROOT
ATOM      1  O   UNL     1     -10.928 -11.782  17.005  0.00  0.00    +0.000 OA
ATOM      2  O   UNL     1      -7.236 -11.158  15.487  0.00  0.00    +0.000 OA
ATOM      3  C   UNL     1     -10.691 -10.669  16.204  0.00  0.00    +0.000 A 
ATOM      4  C   UNL     1      -9.480 -10.404  15.670  0.00  0.00    +0.000 A 
ATOM      5  C   UNL     1      -8.358 -11.343  15.944  0.00  0.00    +0.000 A 
ATOM      6  C   UNL     1      -8.653 -12.511  16.796  0.00  0.00    +0.000 A 
ATOM      7  C   UNL     1      -9.895 -12.646  17.260  0.00  0.00    +0.000 A 
ATOM      8  H   UNL     1      -7.866 -13.219  17.021  0.00  0.00    +0.000 HD
ATOM      9  H   UNL     1     -10.215 -13.462  17.890  0.00  0.00    +0.000 HD
ENDROOT
BRANCH   3  10
ATOM     10  C   UNL     1     -11.902  -9.812  16.008  0.00  0.00    +0.000 C 
ATOM     11  H   UNL     1     -11.695  -8.785  16.327  0.00  0.00    +0.000 HD
ATOM     12  H   UNL     1     -12.776 -10.187  16.546  0.00  0.00    +0.000 HD
ATOM     13  H   UNL     1     -12.181  -9.784  14.948  0.00  0.00    +0.000 HD
ENDBRANCH   3  10
BRANCH   4  14
ATOM     14  O   UNL     1      -9.238  -9.304  14.878  0.00  0.00    +0.000 OA
ATOM     15  H   UNL     1      -9.520  -9.487  13.968  0.00  0.00    +0.000 HD
ENDBRANCH   4  14
TORSDOF 2
ENDMDL
