MODEL 1
REMARK VINA RESULT:    -4.644      0.000      0.000
REMARK INTER + INTRA:          -6.028
REMARK INTER:                  -5.883
REMARK INTRA:                  -0.145
REMARK UNBOUND:                -0.162
REMARK  Name = 82336
REMARK  6 active torsions:
REMARK  status: ('A' for Active; 'I' for Inactive)
REMARK    1  A    between atoms: O_1  and  C_12
REMARK    2  A    between atoms: O_1  and  C_13
REMARK    3  A    between atoms: N_3  and  C_4
REMARK    4  A    between atoms: N_3  and  C_8
REMARK    5  A    between atoms: N_3  and  C_9
REMARK    6  A    between atoms: C_5  and  C_12
REMARK                            x       y       z     vdW  Elec       q    Type
REMARK                         _______ _______ _______ _____ _____    ______ ____
ROOT
ATOM      1  C   UNL     1      -2.465   9.057 -11.078  0.00  0.00    +0.000 A 
ATOM      2  C   UNL     1      -2.701   7.682 -11.104  0.00  0.00    +0.000 A 
ATOM      3  C   UNL     1      -2.584   9.763  -9.881  0.00  0.00    +0.000 A 
ATOM      4  C   UNL     1      -3.059   7.014  -9.934  0.00  0.00    +0.000 A 
ATOM      5  C   UNL     1      -2.942   9.094  -8.711  0.00  0.00    +0.000 A 
ATOM      6  C   UNL     1      -3.179   7.720  -8.737  0.00  0.00    +0.000 A 
ATOM      7  H   UNL     1      -2.410  10.835  -9.843  0.00  0.00    +0.000 HD
ATOM      8  H   UNL     1      -3.246   5.943  -9.941  0.00  0.00    +0.000 HD
ATOM      9  H   UNL     1      -3.038   9.644  -7.779  0.00  0.00    +0.000 HD
ATOM     10  H   UNL     1      -3.458   7.199  -7.825  0.00  0.00    +0.000 HD
ENDROOT
BRANCH   2  12
ATOM     11  O   UNL     1      -1.510   6.553 -12.835  0.00  0.00    +0.000 OA
ATOM     12  C   UNL     1      -2.584   6.916 -12.339  0.00  0.00    +0.000 C 
BRANCH  12  13
ATOM     13  O   UNL     1      -3.810   6.647 -12.879  0.00  0.00    +0.000 OA
BRANCH  13  14
ATOM     14  C   UNL     1      -3.845   6.332 -14.275  0.00  0.00    +0.000 C 
ATOM     15  H   UNL     1      -3.090   6.915 -14.811  0.00  0.00    +0.000 HD
ATOM     16  H   UNL     1      -4.843   6.525 -14.681  0.00  0.00    +0.000 HD
ATOM     17  H   UNL     1      -3.616   5.270 -14.391  0.00  0.00    +0.000 HD
ENDBRANCH  13  14
ENDBRANCH  12  13
ENDBRANCH   2  12
BRANCH   1  18
ATOM     18  N   UNL     1      -2.101   9.753 -12.253  0.00  0.00    +0.000 N 
BRANCH  18  19
ATOM     19  C   UNL     1      -0.711  10.050 -12.527  0.00  0.00    +0.000 C 
ATOM     20  H   UNL     1      -0.051   9.333 -12.027  0.00  0.00    +0.000 HD
ATOM     21  H   UNL     1      -0.455  11.059 -12.186  0.00  0.00    +0.000 HD
ATOM     22  H   UNL     1      -0.498   9.997 -13.600  0.00  0.00    +0.000 HD
ENDBRANCH  18  19
BRANCH  18  23
ATOM     23  C   UNL     1      -3.115  10.164 -13.203  0.00  0.00    +0.000 C 
ATOM     24  H   UNL     1      -3.482  11.165 -12.952  0.00  0.00    +0.000 HD
ATOM     25  H   UNL     1      -3.983   9.496 -13.198  0.00  0.00    +0.000 HD
ATOM     26  H   UNL     1      -2.701  10.207 -14.216  0.00  0.00    +0.000 HD
ENDBRANCH  18  23
ENDBRANCH   1  18
TORSDOF 6
ENDMDL
MODEL 2
REMARK VINA RESULT:    -4.595      8.847     10.319
REMARK INTER + INTRA:          -5.966
REMARK INTER:                  -5.751
REMARK INTRA:                  -0.215
REMARK UNBOUND:                -0.162
REMARK  Name = 82336
REMARK  6 active torsions:
REMARK  status: ('A' for Active; 'I' for Inactive)
REMARK    1  A    between atoms: O_1  and  C_12
REMARK    2  A    between atoms: O_1  and  C_13
REMARK    3  A    between atoms: N_3  and  C_4
REMARK    4  A    between atoms: N_3  and  C_8
REMARK    5  A    between atoms: N_3  and  C_9
REMARK    6  A    between atoms: C_5  and  C_12
REMARK                            x       y       z     vdW  Elec       q    Type
REMARK                         _______ _______ _______ _____ _____    ______ ____
ROOT
ATOM      1  C   UNL     1     -10.491   5.047  -5.650  0.00  0.00    +0.000 A 
ATOM      2  C   UNL     1      -9.573   6.086  -5.490  0.00  0.00    +0.000 A 
ATOM      3  C   UNL     1     -10.156   3.753  -5.253  0.00  0.00    +0.000 A 
ATOM      4  C   UNL     1      -8.320   5.830  -4.934  0.00  0.00    +0.000 A 
ATOM      5  C   UNL     1      -8.903   3.497  -4.697  0.00  0.00    +0.000 A 
ATOM      6  C   UNL     1      -7.985   4.535  -4.538  0.00  0.00    +0.000 A 
ATOM      7  H   UNL     1     -10.855   2.930  -5.375  0.00  0.00    +0.000 HD
ATOM      8  H   UNL     1      -7.597   6.631  -4.805  0.00  0.00    +0.000 HD
ATOM      9  H   UNL     1      -8.640   2.488  -4.390  0.00  0.00    +0.000 HD
ATOM     10  H   UNL     1      -7.008   4.336  -4.105  0.00  0.00    +0.000 HD
ENDROOT
BRANCH   2  12
ATOM     11  O   UNL     1     -10.534   8.250  -5.202  0.00  0.00    +0.000 OA
ATOM     12  C   UNL     1      -9.894   7.449  -5.894  0.00  0.00    +0.000 C 
BRANCH  12  13
ATOM     13  O   UNL     1      -9.396   7.733  -7.135  0.00  0.00    +0.000 OA
BRANCH  13  14
ATOM     14  C   UNL     1     -10.159   8.632  -7.946  0.00  0.00    +0.000 C 
ATOM     15  H   UNL     1     -11.182   8.262  -8.058  0.00  0.00    +0.000 HD
ATOM     16  H   UNL     1      -9.683   8.756  -8.924  0.00  0.00    +0.000 HD
ATOM     17  H   UNL     1     -10.189   9.603  -7.443  0.00  0.00    +0.000 HD
ENDBRANCH  13  14
ENDBRANCH  12  13
ENDBRANCH   2  12
BRANCH   1  18
ATOM     18  N   UNL     1     -11.766   5.285  -6.210  0.00  0.00    +0.000 N 
BRANCH  18  19
ATOM     19  C   UNL     1     -11.955   5.236  -7.645  0.00  0.00    +0.000 C 
ATOM     20  H   UNL     1     -11.054   4.866  -8.147  0.00  0.00    +0.000 HD
ATOM     21  H   UNL     1     -12.193   6.230  -8.040  0.00  0.00    +0.000 HD
ATOM     22  H   UNL     1     -12.777   4.565  -7.914  0.00  0.00    +0.000 HD
ENDBRANCH  18  19
BRANCH  18  23
ATOM     23  C   UNL     1     -12.900   5.568  -5.355  0.00  0.00    +0.000 C 
ATOM     24  H   UNL     1     -13.081   6.647  -5.313  0.00  0.00    +0.000 HD
ATOM     25  H   UNL     1     -12.737   5.233  -4.325  0.00  0.00    +0.000 HD
ATOM     26  H   UNL     1     -13.807   5.095  -5.746  0.00  0.00    +0.000 HD
ENDBRANCH  18  23
ENDBRANCH   1  18
TORSDOF 6
ENDMDL
MODEL 3
REMARK VINA RESULT:    -4.585     18.155     20.036
REMARK INTER + INTRA:          -5.954
REMARK INTER:                  -5.781
REMARK INTRA:                  -0.173
REMARK UNBOUND:                -0.162
REMARK  Name = 82336
REMARK  6 active torsions:
REMARK  status: ('A' for Active; 'I' for Inactive)
REMARK    1  A    between atoms: O_1  and  C_12
REMARK    2  A    between atoms: O_1  and  C_13
REMARK    3  A    between atoms: N_3  and  C_4
REMARK    4  A    between atoms: N_3  and  C_8
REMARK    5  A    between atoms: N_3  and  C_9
REMARK    6  A    between atoms: C_5  and  C_12
REMARK                            x       y       z     vdW  Elec       q    Type
REMARK                         _______ _______ _______ _____ _____    ______ ____
ROOT
ATOM      1  C   UNL     1      -7.642  12.339   7.271  0.00  0.00    +0.000 A 
ATOM      2  C   UNL     1      -8.216  11.243   6.625  0.00  0.00    +0.000 A 
ATOM      3  C   UNL     1      -6.859  13.241   6.551  0.00  0.00    +0.000 A 
ATOM      4  C   UNL     1      -8.006  11.050   5.260  0.00  0.00    +0.000 A 
ATOM      5  C   UNL     1      -6.650  13.048   5.186  0.00  0.00    +0.000 A 
ATOM      6  C   UNL     1      -7.223  11.952   4.541  0.00  0.00    +0.000 A 
ATOM      7  H   UNL     1      -6.399  14.096   7.039  0.00  0.00    +0.000 HD
ATOM      8  H   UNL     1      -8.448  10.200   4.746  0.00  0.00    +0.000 HD
ATOM      9  H   UNL     1      -6.038  13.749   4.626  0.00  0.00    +0.000 HD
ATOM     10  H   UNL     1      -7.059  11.802   3.477  0.00  0.00    +0.000 HD
ENDROOT
BRANCH   2  12
ATOM     11  O   UNL     1      -8.603   9.267   7.903  0.00  0.00    +0.000 OA
ATOM     12  C   UNL     1      -9.040  10.283   7.349  0.00  0.00    +0.000 C 
BRANCH  12  13
ATOM     13  O   UNL     1     -10.358  10.647   7.340  0.00  0.00    +0.000 OA
BRANCH  13  14
ATOM     14  C   UNL     1     -11.310   9.616   7.059  0.00  0.00    +0.000 C 
ATOM     15  H   UNL     1     -11.321   8.884   7.871  0.00  0.00    +0.000 HD
ATOM     16  H   UNL     1     -11.072   9.132   6.106  0.00  0.00    +0.000 HD
ATOM     17  H   UNL     1     -12.298  10.075   6.984  0.00  0.00    +0.000 HD
ENDBRANCH  13  14
ENDBRANCH  12  13
ENDBRANCH   2  12
BRANCH   1  18
ATOM     18  N   UNL     1      -7.843  12.553   8.653  0.00  0.00    +0.000 N 
BRANCH  18  19
ATOM     19  C   UNL     1      -8.945  13.370   9.115  0.00  0.00    +0.000 C 
ATOM     20  H   UNL     1      -8.582  14.309   9.547  0.00  0.00    +0.000 HD
ATOM     21  H   UNL     1      -9.531  12.840   9.873  0.00  0.00    +0.000 HD
ATOM     22  H   UNL     1      -9.619  13.629   8.292  0.00  0.00    +0.000 HD
ENDBRANCH  18  19
BRANCH  18  23
ATOM     23  C   UNL     1      -6.956  11.945   9.624  0.00  0.00    +0.000 C 
ATOM     24  H   UNL     1      -7.145  10.868   9.685  0.00  0.00    +0.000 HD
ATOM     25  H   UNL     1      -7.103  12.351  10.631  0.00  0.00    +0.000 HD
ATOM     26  H   UNL     1      -5.910  12.081   9.331  0.00  0.00    +0.000 HD
ENDBRANCH  18  23
ENDBRANCH   1  18
TORSDOF 6
ENDMDL
MODEL 4
REMARK VINA RESULT:    -4.544      1.802      3.174
REMARK INTER + INTRA:          -5.901
REMARK INTER:                  -5.762
REMARK INTRA:                  -0.140
REMARK UNBOUND:                -0.162
REMARK  Name = 82336
REMARK  6 active torsions:
REMARK  status: ('A' for Active; 'I' for Inactive)
REMARK    1  A    between atoms: O_1  and  C_12
REMARK    2  A    between atoms: O_1  and  C_13
REMARK    3  A    between atoms: N_3  and  C_4
REMARK    4  A    between atoms: N_3  and  C_8
REMARK    5  A    between atoms: N_3  and  C_9
REMARK    6  A    between atoms: C_5  and  C_12
REMARK                            x       y       z     vdW  Elec       q    Type
REMARK                         _______ _______ _______ _____ _____    ______ ____
ROOT
ATOM      1  C   UNL     1      -2.969   7.601 -11.110  0.00  0.00    +0.000 A 
ATOM      2  C   UNL     1      -2.729   8.958 -10.894  0.00  0.00    +0.000 A 
ATOM      3  C   UNL     1      -3.247   6.762 -10.031  0.00  0.00    +0.000 A 
ATOM      4  C   UNL     1      -2.766   9.476  -9.599  0.00  0.00    +0.000 A 
ATOM      5  C   UNL     1      -3.285   7.279  -8.737  0.00  0.00    +0.000 A 
ATOM      6  C   UNL     1      -3.044   8.636  -8.521  0.00  0.00    +0.000 A 
ATOM      7  H   UNL     1      -3.430   5.701 -10.179  0.00  0.00    +0.000 HD
ATOM      8  H   UNL     1      -2.581  10.531  -9.418  0.00  0.00    +0.000 HD
ATOM      9  H   UNL     1      -3.499   6.625  -7.896  0.00  0.00    +0.000 HD
ATOM     10  H   UNL     1      -3.073   9.039  -7.512  0.00  0.00    +0.000 HD
ENDROOT
BRANCH   2  12
ATOM     11  O   UNL     1      -3.283  10.293 -12.791  0.00  0.00    +0.000 OA
ATOM     12  C   UNL     1      -2.436   9.861 -12.000  0.00  0.00    +0.000 C 
BRANCH  12  13
ATOM     13  O   UNL     1      -1.105  10.173 -12.052  0.00  0.00    +0.000 OA
BRANCH  13  14
ATOM     14  C   UNL     1      -0.535  10.346 -13.353  0.00  0.00    +0.000 C 
ATOM     15  H   UNL     1       0.530  10.581 -13.268  0.00  0.00    +0.000 HD
ATOM     16  H   UNL     1      -1.063  11.137 -13.895  0.00  0.00    +0.000 HD
ATOM     17  H   UNL     1      -0.646   9.408 -13.902  0.00  0.00    +0.000 HD
ENDBRANCH  13  14
ENDBRANCH  12  13
ENDBRANCH   2  12
BRANCH   1  18
ATOM     18  N   UNL     1      -2.935   7.057 -12.413  0.00  0.00    +0.000 N 
BRANCH  18  19
ATOM     19  C   UNL     1      -1.670   6.754 -13.048  0.00  0.00    +0.000 C 
ATOM     20  H   UNL     1      -1.114   7.672 -13.270  0.00  0.00    +0.000 HD
ATOM     21  H   UNL     1      -1.825   6.205 -13.983  0.00  0.00    +0.000 HD
ATOM     22  H   UNL     1      -1.038   6.139 -12.400  0.00  0.00    +0.000 HD
ENDBRANCH  18  19
BRANCH  18  23
ATOM     23  C   UNL     1      -4.168   6.782 -13.123  0.00  0.00    +0.000 C 
ATOM     24  H   UNL     1      -4.859   6.228 -12.478  0.00  0.00    +0.000 HD
ATOM     25  H   UNL     1      -4.004   6.168 -14.015  0.00  0.00    +0.000 HD
ATOM     26  H   UNL     1      -4.663   7.714 -13.415  0.00  0.00    +0.000 HD
ENDBRANCH  18  23
ENDBRANCH   1  18
TORSDOF 6
ENDMDL
MODEL 5
REMARK VINA RESULT:    -4.195      9.896     11.328
REMARK INTER + INTRA:          -5.460
REMARK INTER:                  -5.223
REMARK INTRA:                  -0.237
REMARK UNBOUND:                -0.162
REMARK  Name = 82336
REMARK  6 active torsions:
REMARK  status: ('A' for Active; 'I' for Inactive)
REMARK    1  A    between atoms: O_1  and  C_12
REMARK    2  A    between atoms: O_1  and  C_13
REMARK    3  A    between atoms: N_3  and  C_4
REMARK    4  A    between atoms: N_3  and  C_8
REMARK    5  A    between atoms: N_3  and  C_9
REMARK    6  A    between atoms: C_5  and  C_12
REMARK                            x       y       z     vdW  Elec       q    Type
REMARK                         _______ _______ _______ _____ _____    ______ ____
ROOT
ATOM      1  C   UNL     1       2.072  -1.429 -13.604  0.00  0.00    +0.000 A 
ATOM      2  C   UNL     1       2.646  -0.215 -13.985  0.00  0.00    +0.000 A 
ATOM      3  C   UNL     1       0.894  -1.439 -12.858  0.00  0.00    +0.000 A 
ATOM      4  C   UNL     1       2.041   0.987 -13.620  0.00  0.00    +0.000 A 
ATOM      5  C   UNL     1       0.289  -0.237 -12.493  0.00  0.00    +0.000 A 
ATOM      6  C   UNL     1       0.863   0.976 -12.873  0.00  0.00    +0.000 A 
ATOM      7  H   UNL     1       0.436  -2.374 -12.547  0.00  0.00    +0.000 HD
ATOM      8  H   UNL     1       2.479   1.939 -13.911  0.00  0.00    +0.000 HD
ATOM      9  H   UNL     1      -0.627  -0.245 -11.910  0.00  0.00    +0.000 HD
ATOM     10  H   UNL     1       0.392   1.913 -12.588  0.00  0.00    +0.000 HD
ENDROOT
BRANCH   2  12
ATOM     11  O   UNL     1       5.013  -0.193 -14.278  0.00  0.00    +0.000 OA
ATOM     12  C   UNL     1       3.876  -0.171 -14.765  0.00  0.00    +0.000 C 
BRANCH  12  13
ATOM     13  O   UNL     1       3.616  -0.103 -16.106  0.00  0.00    +0.000 OA
BRANCH  13  14
ATOM     14  C   UNL     1       4.448  -0.890 -16.965  0.00  0.00    +0.000 C 
ATOM     15  H   UNL     1       3.832  -1.550 -17.583  0.00  0.00    +0.000 HD
ATOM     16  H   UNL     1       5.161  -1.471 -16.371  0.00  0.00    +0.000 HD
ATOM     17  H   UNL     1       5.002  -0.212 -17.618  0.00  0.00    +0.000 HD
ENDBRANCH  13  14
ENDBRANCH  12  13
ENDBRANCH   2  12
BRANCH   1  18
ATOM     18  N   UNL     1       2.669  -2.658 -13.964  0.00  0.00    +0.000 N 
BRANCH  18  19
ATOM     19  C   UNL     1       3.669  -3.264 -13.111  0.00  0.00    +0.000 C 
ATOM     20  H   UNL     1       3.331  -4.239 -12.743  0.00  0.00    +0.000 HD
ATOM     21  H   UNL     1       3.887  -2.621 -12.251  0.00  0.00    +0.000 HD
ATOM     22  H   UNL     1       4.607  -3.426 -13.653  0.00  0.00    +0.000 HD
ENDBRANCH  18  19
BRANCH  18  23
ATOM     23  C   UNL     1       2.276  -3.332 -15.184  0.00  0.00    +0.000 C 
ATOM     24  H   UNL     1       1.999  -4.370 -14.969  0.00  0.00    +0.000 HD
ATOM     25  H   UNL     1       3.087  -3.366 -15.920  0.00  0.00    +0.000 HD
ATOM     26  H   UNL     1       1.404  -2.845 -15.633  0.00  0.00    +0.000 HD
ENDBRANCH  18  23
ENDBRANCH   1  18
TORSDOF 6
ENDMDL
MODEL 6
REMARK VINA RESULT:    -4.121      2.355      3.460
REMARK INTER + INTRA:          -5.367
REMARK INTER:                  -5.135
REMARK INTRA:                  -0.232
REMARK UNBOUND:                -0.162
REMARK  Name = 82336
REMARK  6 active torsions:
REMARK  status: ('A' for Active; 'I' for Inactive)
REMARK    1  A    between atoms: O_1  and  C_12
REMARK    2  A    between atoms: O_1  and  C_13
REMARK    3  A    between atoms: N_3  and  C_4
REMARK    4  A    between atoms: N_3  and  C_8
REMARK    5  A    between atoms: N_3  and  C_9
REMARK    6  A    between atoms: C_5  and  C_12
REMARK                            x       y       z     vdW  Elec       q    Type
REMARK                         _______ _______ _______ _____ _____    ______ ____
ROOT
ATOM      1  C   UNL     1      -2.676   9.704 -12.547  0.00  0.00    +0.000 A 
ATOM      2  C   UNL     1      -1.345  10.018 -12.273  0.00  0.00    +0.000 A 
ATOM      3  C   UNL     1      -3.552   9.406 -11.504  0.00  0.00    +0.000 A 
ATOM      4  C   UNL     1      -0.890  10.034 -10.955  0.00  0.00    +0.000 A 
ATOM      5  C   UNL     1      -3.097   9.422 -10.186  0.00  0.00    +0.000 A 
ATOM      6  C   UNL     1      -1.766   9.735  -9.911  0.00  0.00    +0.000 A 
ATOM      7  H   UNL     1      -4.591   9.153 -11.699  0.00  0.00    +0.000 HD
ATOM      8  H   UNL     1       0.145  10.277 -10.728  0.00  0.00    +0.000 HD
ATOM      9  H   UNL     1      -3.778   9.187  -9.372  0.00  0.00    +0.000 HD
ATOM     10  H   UNL     1      -1.411   9.747  -8.884  0.00  0.00    +0.000 HD
ENDROOT
BRANCH   2  12
ATOM     11  O   UNL     1      -0.239  11.466 -13.811  0.00  0.00    +0.000 OA
ATOM     12  C   UNL     1      -0.406  10.334 -13.341  0.00  0.00    +0.000 C 
BRANCH  12  13
ATOM     13  O   UNL     1       0.271   9.222 -13.758  0.00  0.00    +0.000 OA
BRANCH  13  14
ATOM     14  C   UNL     1       0.628   9.165 -15.142  0.00  0.00    +0.000 C 
ATOM     15  H   UNL     1       1.153   8.230 -15.358  0.00  0.00    +0.000 HD
ATOM     16  H   UNL     1       1.249  10.027 -15.409  0.00  0.00    +0.000 HD
ATOM     17  H   UNL     1      -0.291   9.197 -15.733  0.00  0.00    +0.000 HD
ENDBRANCH  13  14
ENDBRANCH  12  13
ENDBRANCH   2  12
BRANCH   1  18
ATOM     18  N   UNL     1      -3.158   9.683 -13.876  0.00  0.00    +0.000 N 
BRANCH  18  19
ATOM     19  C   UNL     1      -3.113   8.461 -14.651  0.00  0.00    +0.000 C 
ATOM     20  H   UNL     1      -2.078   8.179 -14.877  0.00  0.00    +0.000 HD
ATOM     21  H   UNL     1      -3.657   8.579 -15.594  0.00  0.00    +0.000 HD
ATOM     22  H   UNL     1      -3.567   7.627 -14.105  0.00  0.00    +0.000 HD
ENDBRANCH  18  19
BRANCH  18  23
ATOM     23  C   UNL     1      -3.715  10.880 -14.471  0.00  0.00    +0.000 C 
ATOM     24  H   UNL     1      -4.186  10.639 -15.430  0.00  0.00    +0.000 HD
ATOM     25  H   UNL     1      -2.949  11.637 -14.675  0.00  0.00    +0.000 HD
ATOM     26  H   UNL     1      -4.484  11.313 -13.824  0.00  0.00    +0.000 HD
ENDBRANCH  18  23
ENDBRANCH   1  18
TORSDOF 6
ENDMDL
MODEL 7
REMARK VINA RESULT:    -4.081      8.507      9.212
REMARK INTER + INTRA:          -5.317
REMARK INTER:                  -5.132
REMARK INTRA:                  -0.185
REMARK UNBOUND:                -0.162
REMARK  Name = 82336
REMARK  6 active torsions:
REMARK  status: ('A' for Active; 'I' for Inactive)
REMARK    1  A    between atoms: O_1  and  C_12
REMARK    2  A    between atoms: O_1  and  C_13
REMARK    3  A    between atoms: N_3  and  C_4
REMARK    4  A    between atoms: N_3  and  C_8
REMARK    5  A    between atoms: N_3  and  C_9
REMARK    6  A    between atoms: C_5  and  C_12
REMARK                            x       y       z     vdW  Elec       q    Type
REMARK                         _______ _______ _______ _____ _____    ______ ____
ROOT
ATOM      1  C   UNL     1      -2.558  -0.554 -12.623  0.00  0.00    +0.000 A 
ATOM      2  C   UNL     1      -1.465  -0.551 -11.757  0.00  0.00    +0.000 A 
ATOM      3  C   UNL     1      -3.854  -0.507 -12.110  0.00  0.00    +0.000 A 
ATOM      4  C   UNL     1      -1.667  -0.502 -10.378  0.00  0.00    +0.000 A 
ATOM      5  C   UNL     1      -4.057  -0.457 -10.731  0.00  0.00    +0.000 A 
ATOM      6  C   UNL     1      -2.963  -0.455  -9.865  0.00  0.00    +0.000 A 
ATOM      7  H   UNL     1      -4.718  -0.515 -12.769  0.00  0.00    +0.000 HD
ATOM      8  H   UNL     1      -0.823  -0.499  -9.693  0.00  0.00    +0.000 HD
ATOM      9  H   UNL     1      -5.066  -0.423 -10.331  0.00  0.00    +0.000 HD
ATOM     10  H   UNL     1      -3.122  -0.417  -8.791  0.00  0.00    +0.000 HD
ENDROOT
BRANCH   2  12
ATOM     11  O   UNL     1       0.474  -1.632 -12.629  0.00  0.00    +0.000 OA
ATOM     12  C   UNL     1      -0.098  -0.599 -12.261  0.00  0.00    +0.000 C 
BRANCH  12  13
ATOM     13  O   UNL     1       0.473   0.644 -12.279  0.00  0.00    +0.000 OA
BRANCH  13  14
ATOM     14  C   UNL     1       1.533   0.852 -13.217  0.00  0.00    +0.000 C 
ATOM     15  H   UNL     1       1.128   0.929 -14.231  0.00  0.00    +0.000 HD
ATOM     16  H   UNL     1       2.261   0.037 -13.153  0.00  0.00    +0.000 HD
ATOM     17  H   UNL     1       2.032   1.791 -12.965  0.00  0.00    +0.000 HD
ENDBRANCH  13  14
ENDBRANCH  12  13
ENDBRANCH   2  12
BRANCH   1  18
ATOM     18  N   UNL     1      -2.374  -0.604 -14.023  0.00  0.00    +0.000 N 
BRANCH  18  19
ATOM     19  C   UNL     1      -2.433  -1.869 -14.725  0.00  0.00    +0.000 C 
ATOM     20  H   UNL     1      -3.080  -2.579 -14.198  0.00  0.00    +0.000 HD
ATOM     21  H   UNL     1      -1.433  -2.308 -14.817  0.00  0.00    +0.000 HD
ATOM     22  H   UNL     1      -2.837  -1.745 -15.734  0.00  0.00    +0.000 HD
ENDBRANCH  18  19
BRANCH  18  23
ATOM     23  C   UNL     1      -2.140   0.612 -14.774  0.00  0.00    +0.000 C 
ATOM     24  H   UNL     1      -2.638   0.556 -15.748  0.00  0.00    +0.000 HD
ATOM     25  H   UNL     1      -1.075   0.780 -14.970  0.00  0.00    +0.000 HD
ATOM     26  H   UNL     1      -2.548   1.480 -14.244  0.00  0.00    +0.000 HD
ENDBRANCH  18  23
ENDBRANCH   1  18
TORSDOF 6
ENDMDL
MODEL 8
REMARK VINA RESULT:    -4.059     33.658     34.953
REMARK INTER + INTRA:          -5.289
REMARK INTER:                  -5.055
REMARK INTRA:                  -0.234
REMARK UNBOUND:                -0.162
REMARK  Name = 82336
REMARK  6 active torsions:
REMARK  status: ('A' for Active; 'I' for Inactive)
REMARK    1  A    between atoms: O_1  and  C_12
REMARK    2  A    between atoms: O_1  and  C_13
REMARK    3  A    between atoms: N_3  and  C_4
REMARK    4  A    between atoms: N_3  and  C_8
REMARK    5  A    between atoms: N_3  and  C_9
REMARK    6  A    between atoms: C_5  and  C_12
REMARK                            x       y       z     vdW  Elec       q    Type
REMARK                         _______ _______ _______ _____ _____    ______ ____
ROOT
ATOM      1  C   UNL     1     -11.659 -11.659  16.404  0.00  0.00    +0.000 A 
ATOM      2  C   UNL     1     -11.370 -10.410  15.854  0.00  0.00    +0.000 A 
ATOM      3  C   UNL     1     -10.653 -12.618  16.524  0.00  0.00    +0.000 A 
ATOM      4  C   UNL     1     -10.076 -10.120  15.424  0.00  0.00    +0.000 A 
ATOM      5  C   UNL     1      -9.359 -12.328  16.094  0.00  0.00    +0.000 A 
ATOM      6  C   UNL     1      -9.070 -11.079  15.543  0.00  0.00    +0.000 A 
ATOM      7  H   UNL     1     -10.861 -13.599  16.944  0.00  0.00    +0.000 HD
ATOM      8  H   UNL     1      -9.838  -9.150  14.994  0.00  0.00    +0.000 HD
ATOM      9  H   UNL     1      -8.575 -13.075  16.185  0.00  0.00    +0.000 HD
ATOM     10  H   UNL     1      -8.061 -10.853  15.208  0.00  0.00    +0.000 HD
ENDROOT
BRANCH   2  12
ATOM     11  O   UNL     1     -12.704  -8.580  16.602  0.00  0.00    +0.000 OA
ATOM     12  C   UNL     1     -12.399  -9.387  15.716  0.00  0.00    +0.000 C 
BRANCH  12  13
ATOM     13  O   UNL     1     -12.984  -9.429  14.481  0.00  0.00    +0.000 OA
BRANCH  13  14
ATOM     14  C   UNL     1     -14.398  -9.219  14.430  0.00  0.00    +0.000 C 
ATOM     15  H   UNL     1     -14.700  -8.938  13.417  0.00  0.00    +0.000 HD
ATOM     16  H   UNL     1     -14.692  -8.447  15.148  0.00  0.00    +0.000 HD
ATOM     17  H   UNL     1     -14.892 -10.156  14.698  0.00  0.00    +0.000 HD
ENDBRANCH  13  14
ENDBRANCH  12  13
ENDBRANCH   2  12
BRANCH   1  18
ATOM     18  N   UNL     1     -12.964 -11.973  16.846  0.00  0.00    +0.000 N 
BRANCH  18  19
ATOM     19  C   UNL     1     -13.919 -12.575  15.939  0.00  0.00    +0.000 C 
ATOM     20  H   UNL     1     -14.843 -11.987  15.897  0.00  0.00    +0.000 HD
ATOM     21  H   UNL     1     -14.167 -13.593  16.256  0.00  0.00    +0.000 HD
ATOM     22  H   UNL     1     -13.520 -12.629  14.921  0.00  0.00    +0.000 HD
ENDBRANCH  18  19
BRANCH  18  23
ATOM     23  C   UNL     1     -13.355 -11.710  18.215  0.00  0.00    +0.000 C 
ATOM     24  H   UNL     1     -13.596 -10.648  18.341  0.00  0.00    +0.000 HD
ATOM     25  H   UNL     1     -12.555 -11.940  18.928  0.00  0.00    +0.000 HD
ATOM     26  H   UNL     1     -14.249 -12.285  18.481  0.00  0.00    +0.000 HD
ENDBRANCH  18  23
ENDBRANCH   1  18
TORSDOF 6
ENDMDL
MODEL 9
REMARK VINA RESULT:    -3.985     31.972     33.234
REMARK INTER + INTRA:          -5.196
REMARK INTER:                  -5.033
REMARK INTRA:                  -0.162
REMARK UNBOUND:                -0.162
REMARK  Name = 82336
REMARK  6 active torsions:
REMARK  status: ('A' for Active; 'I' for Inactive)
REMARK    1  A    between atoms: O_1  and  C_12
REMARK    2  A    between atoms: O_1  and  C_13
REMARK    3  A    between atoms: N_3  and  C_4
REMARK    4  A    between atoms: N_3  and  C_8
REMARK    5  A    between atoms: N_3  and  C_9
REMARK    6  A    between atoms: C_5  and  C_12
REMARK                            x       y       z     vdW  Elec       q    Type
REMARK                         _______ _______ _______ _____ _____    ______ ____
ROOT
ATOM      1  C   UNL     1     -15.136  -5.952  15.436  0.00  0.00    +0.000 A 
ATOM      2  C   UNL     1     -14.862  -7.234  14.959  0.00  0.00    +0.000 A 
ATOM      3  C   UNL     1     -16.345  -5.334  15.118  0.00  0.00    +0.000 A 
ATOM      4  C   UNL     1     -15.796  -7.897  14.164  0.00  0.00    +0.000 A 
ATOM      5  C   UNL     1     -17.279  -5.997  14.322  0.00  0.00    +0.000 A 
ATOM      6  C   UNL     1     -17.004  -7.279  13.845  0.00  0.00    +0.000 A 
ATOM      7  H   UNL     1     -16.574  -4.333  15.474  0.00  0.00    +0.000 HD
ATOM      8  H   UNL     1     -15.593  -8.896  13.787  0.00  0.00    +0.000 HD
ATOM      9  H   UNL     1     -18.220  -5.515  14.072  0.00  0.00    +0.000 HD
ATOM     10  H   UNL     1     -17.732  -7.796  13.226  0.00  0.00    +0.000 HD
ENDROOT
BRANCH   2  12
ATOM     11  O   UNL     1     -12.547  -7.727  14.665  0.00  0.00    +0.000 OA
ATOM     12  C   UNL     1     -13.608  -7.907  15.274  0.00  0.00    +0.000 C 
BRANCH  12  13
ATOM     13  O   UNL     1     -13.751  -8.762  16.332  0.00  0.00    +0.000 OA
BRANCH  13  14
ATOM     14  C   UNL     1     -12.716  -9.732  16.521  0.00  0.00    +0.000 C 
ATOM     15  H   UNL     1     -12.028  -9.400  17.304  0.00  0.00    +0.000 HD
ATOM     16  H   UNL     1     -12.180  -9.901  15.582  0.00  0.00    +0.000 HD
ATOM     17  H   UNL     1     -13.181 -10.670  16.835  0.00  0.00    +0.000 HD
ENDBRANCH  13  14
ENDBRANCH  12  13
ENDBRANCH   2  12
BRANCH   1  18
ATOM     18  N   UNL     1     -14.204  -5.262  16.243  0.00  0.00    +0.000 N 
BRANCH  18  19
ATOM     19  C   UNL     1     -13.259  -4.341  15.646  0.00  0.00    +0.000 C 
ATOM     20  H   UNL     1     -13.680  -3.331  15.590  0.00  0.00    +0.000 HD
ATOM     21  H   UNL     1     -12.987  -4.664  14.635  0.00  0.00    +0.000 HD
ATOM     22  H   UNL     1     -12.339  -4.280  16.236  0.00  0.00    +0.000 HD
ENDBRANCH  18  19
BRANCH  18  23
ATOM     23  C   UNL     1     -14.191  -5.459  17.677  0.00  0.00    +0.000 C 
ATOM     24  H   UNL     1     -13.176  -5.693  18.018  0.00  0.00    +0.000 HD
ATOM     25  H   UNL     1     -14.830  -6.294  17.987  0.00  0.00    +0.000 HD
ATOM     26  H   UNL     1     -14.513  -4.550  18.196  0.00  0.00    +0.000 HD
ENDBRANCH  18  23
ENDBRANCH   1  18
TORSDOF 6
ENDMDL
MODEL 10
REMARK VINA RESULT:    -3.953     10.515     11.764
REMARK INTER + INTRA:          -5.155
REMARK INTER:                  -4.951
REMARK INTRA:                  -0.204
REMARK UNBOUND:                -0.162
REMARK  Name = 82336
REMARK  6 active torsions:
REMARK  status: ('A' for Active; 'I' for Inactive)
REMARK    1  A    between atoms: O_1  and  C_12
REMARK    2  A    between atoms: O_1  and  C_13
REMARK    3  A    between atoms: N_3  and  C_4
REMARK    4  A    between atoms: N_3  and  C_8
REMARK    5  A    between atoms: N_3  and  C_9
REMARK    6  A    between atoms: C_5  and  C_12
REMARK                            x       y       z     vdW  Elec       q    Type
REMARK                         _______ _______ _______ _____ _____    ______ ____
ROOT
ATOM      1  C   UNL     1       3.111  -0.592 -14.654  0.00  0.00    +0.000 A 
ATOM      2  C   UNL     1       2.606  -1.563 -13.789  0.00  0.00    +0.000 A 
ATOM      3  C   UNL     1       2.644   0.720 -14.579  0.00  0.00    +0.000 A 
ATOM      4  C   UNL     1       1.634  -1.222 -12.849  0.00  0.00    +0.000 A 
ATOM      5  C   UNL     1       1.672   1.061 -13.639  0.00  0.00    +0.000 A 
ATOM      6  C   UNL     1       1.167   0.090 -12.774  0.00  0.00    +0.000 A 
ATOM      7  H   UNL     1       3.021   1.488 -15.248  0.00  0.00    +0.000 HD
ATOM      8  H   UNL     1       1.233  -1.970 -12.170  0.00  0.00    +0.000 HD
ATOM      9  H   UNL     1       1.307   2.082 -13.581  0.00  0.00    +0.000 HD
ATOM     10  H   UNL     1       0.409   0.356 -12.042  0.00  0.00    +0.000 HD
ENDROOT
BRANCH   2  12
ATOM     11  O   UNL     1       4.003  -3.392 -13.161  0.00  0.00    +0.000 OA
ATOM     12  C   UNL     1       3.073  -2.943 -13.843  0.00  0.00    +0.000 C 
BRANCH  12  13
ATOM     13  O   UNL     1       2.354  -3.680 -14.742  0.00  0.00    +0.000 OA
BRANCH  13  14
ATOM     14  C   UNL     1       3.099  -4.513 -15.635  0.00  0.00    +0.000 C 
ATOM     15  H   UNL     1       3.718  -5.214 -15.068  0.00  0.00    +0.000 HD
ATOM     16  H   UNL     1       3.719  -3.898 -16.297  0.00  0.00    +0.000 HD
ATOM     17  H   UNL     1       2.391  -5.081 -16.244  0.00  0.00    +0.000 HD
ENDBRANCH  13  14
ENDBRANCH  12  13
ENDBRANCH   2  12
BRANCH   1  18
ATOM     18  N   UNL     1       4.096  -0.917 -15.614  0.00  0.00    +0.000 N 
BRANCH  18  19
ATOM     19  C   UNL     1       3.721  -1.175 -16.989  0.00  0.00    +0.000 C 
ATOM     20  H   UNL     1       2.634  -1.127 -17.114  0.00  0.00    +0.000 HD
ATOM     21  H   UNL     1       4.067  -2.165 -17.306  0.00  0.00    +0.000 HD
ATOM     22  H   UNL     1       4.161  -0.435 -17.665  0.00  0.00    +0.000 HD
ENDBRANCH  18  19
BRANCH  18  23
ATOM     23  C   UNL     1       5.492  -0.982 -15.236  0.00  0.00    +0.000 C 
ATOM     24  H   UNL     1       5.800  -2.025 -15.105  0.00  0.00    +0.000 HD
ATOM     25  H   UNL     1       5.689  -0.471 -14.286  0.00  0.00    +0.000 HD
ATOM     26  H   UNL     1       6.126  -0.546 -16.016  0.00  0.00    +0.000 HD
ENDBRANCH  18  23
ENDBRANCH   1  18
TORSDOF 6
ENDMDL
