MODEL 1
REMARK VINA RESULT:    -4.274      0.000      0.000
REMARK INTER + INTRA:          -6.394
REMARK INTER:                  -6.102
REMARK INTRA:                  -0.292
REMARK UNBOUND:                -0.371
REMARK  Name = 7826
REMARK  8 active torsions:
REMARK  status: ('A' for Active; 'I' for Inactive)
REMARK    1  A    between atoms: O_1  and  C_9
REMARK    2  A    between atoms: O_1  and  C_10
REMARK    3  A    between atoms: C_3  and  C_4
REMARK    4  A    between atoms: C_3  and  C_5
REMARK    5  A    between atoms: C_4  and  C_6
REMARK    6  A    between atoms: C_5  and  C_7
REMARK    7  A    between atoms: C_6  and  C_8
REMARK    8  A    between atoms: C_7  and  C_9
REMARK                            x       y       z     vdW  Elec       q    Type
REMARK                         _______ _______ _______ _____ _____    ______ ____
ROOT
ATOM      1  C   UNL     1       6.480   8.060   2.133  0.00  0.00    +0.000 C 
ATOM      2  H   UNL     1       7.266   7.511   1.600  0.00  0.00    +0.000 HD
ATOM      3  H   UNL     1       6.970   8.868   2.689  0.00  0.00    +0.000 HD
ENDROOT
BRANCH   1   4
ATOM      4  C   UNL     1       5.768   7.123   3.111  0.00  0.00    +0.000 C 
ATOM      5  H   UNL     1       4.685   7.279   3.049  0.00  0.00    +0.000 HD
ATOM      6  H   UNL     1       5.961   6.082   2.826  0.00  0.00    +0.000 HD
BRANCH   4   7
ATOM      7  C   UNL     1       6.237   7.358   4.547  0.00  0.00    +0.000 C 
ATOM      8  H   UNL     1       7.297   7.636   4.551  0.00  0.00    +0.000 HD
ATOM      9  H   UNL     1       6.142   6.431   5.125  0.00  0.00    +0.000 HD
BRANCH   7  10
ATOM     10  C   UNL     1       5.429   8.453   5.225  0.00  0.00    +0.000 C 
ATOM     11  H   UNL     1       4.484   8.625   4.700  0.00  0.00    +0.000 HD
ATOM     12  H   UNL     1       5.992   9.391   5.229  0.00  0.00    +0.000 HD
ATOM     13  H   UNL     1       5.203   8.188   6.263  0.00  0.00    +0.000 HD
ENDBRANCH   7  10
ENDBRANCH   4   7
ENDBRANCH   1   4
BRANCH   1  14
ATOM     14  C   UNL     1       5.497   8.658   1.122  0.00  0.00    +0.000 C 
ATOM     15  H   UNL     1       6.025   9.369   0.474  0.00  0.00    +0.000 HD
ATOM     16  H   UNL     1       5.117   7.864   0.468  0.00  0.00    +0.000 HD
BRANCH  14  17
ATOM     17  C   UNL     1       4.322   9.363   1.797  0.00  0.00    +0.000 C 
ATOM     18  H   UNL     1       3.540   8.631   2.031  0.00  0.00    +0.000 HD
ATOM     19  H   UNL     1       4.664   9.826   2.730  0.00  0.00    +0.000 HD
BRANCH  17  21
ATOM     20  O   UNL     1       3.226  11.490   1.357  0.00  0.00    +0.000 OA
ATOM     21  C   UNL     1       3.701  10.443   0.938  0.00  0.00    +0.000 C 
BRANCH  21  22
ATOM     22  O   UNL     1       3.731  10.045  -0.369  0.00  0.00    +0.000 OA
BRANCH  22  23
ATOM     23  C   UNL     1       3.514  11.079  -1.333  0.00  0.00    +0.000 C 
ATOM     24  H   UNL     1       4.466  11.534  -1.621  0.00  0.00    +0.000 HD
ATOM     25  H   UNL     1       2.884  11.845  -0.874  0.00  0.00    +0.000 HD
ATOM     26  H   UNL     1       2.996  10.677  -2.209  0.00  0.00    +0.000 HD
ENDBRANCH  22  23
ENDBRANCH  21  22
ENDBRANCH  17  21
ENDBRANCH  14  17
ENDBRANCH   1  14
TORSDOF 8
ENDMDL
MODEL 2
REMARK VINA RESULT:    -4.117     13.599     15.156
REMARK INTER + INTRA:          -6.172
REMARK INTER:                  -5.768
REMARK INTRA:                  -0.405
REMARK UNBOUND:                -0.371
REMARK  Name = 7826
REMARK  8 active torsions:
REMARK  status: ('A' for Active; 'I' for Inactive)
REMARK    1  A    between atoms: O_1  and  C_9
REMARK    2  A    between atoms: O_1  and  C_10
REMARK    3  A    between atoms: C_3  and  C_4
REMARK    4  A    between atoms: C_3  and  C_5
REMARK    5  A    between atoms: C_4  and  C_6
REMARK    6  A    between atoms: C_5  and  C_7
REMARK    7  A    between atoms: C_6  and  C_8
REMARK    8  A    between atoms: C_7  and  C_9
REMARK                            x       y       z     vdW  Elec       q    Type
REMARK                         _______ _______ _______ _____ _____    ______ ____
ROOT
ATOM      1  C   UNL     1      -3.581   7.121 -11.360  0.00  0.00    +0.000 C 
ATOM      2  H   UNL     1      -4.036   8.111 -11.236  0.00  0.00    +0.000 HD
ATOM      3  H   UNL     1      -4.390   6.420 -11.600  0.00  0.00    +0.000 HD
ENDROOT
BRANCH   1   4
ATOM      4  C   UNL     1      -2.902   6.696 -10.057  0.00  0.00    +0.000 C 
ATOM      5  H   UNL     1      -3.076   5.628  -9.882  0.00  0.00    +0.000 HD
ATOM      6  H   UNL     1      -1.819   6.837 -10.145  0.00  0.00    +0.000 HD
BRANCH   4   7
ATOM      7  C   UNL     1      -3.429   7.501  -8.868  0.00  0.00    +0.000 C 
ATOM      8  H   UNL     1      -3.218   6.967  -7.935  0.00  0.00    +0.000 HD
ATOM      9  H   UNL     1      -4.518   7.605  -8.943  0.00  0.00    +0.000 HD
BRANCH   7  10
ATOM     10  C   UNL     1      -2.800   8.883  -8.808  0.00  0.00    +0.000 C 
ATOM     11  H   UNL     1      -2.053   8.939  -8.010  0.00  0.00    +0.000 HD
ATOM     12  H   UNL     1      -3.565   9.640  -8.612  0.00  0.00    +0.000 HD
ATOM     13  H   UNL     1      -2.309   9.132  -9.755  0.00  0.00    +0.000 HD
ENDBRANCH   7  10
ENDBRANCH   4   7
ENDBRANCH   1   4
BRANCH   1  14
ATOM     14  C   UNL     1      -2.581   7.160 -12.520  0.00  0.00    +0.000 C 
ATOM     15  H   UNL     1      -2.685   6.251 -13.126  0.00  0.00    +0.000 HD
ATOM     16  H   UNL     1      -2.819   8.003 -13.180  0.00  0.00    +0.000 HD
BRANCH  14  17
ATOM     17  C   UNL     1      -1.136   7.287 -12.041  0.00  0.00    +0.000 C 
ATOM     18  H   UNL     1      -1.084   7.065 -10.968  0.00  0.00    +0.000 HD
ATOM     19  H   UNL     1      -0.510   6.566 -12.581  0.00  0.00    +0.000 HD
BRANCH  17  21
ATOM     20  O   UNL     1      -0.650   9.602 -11.476  0.00  0.00    +0.000 OA
ATOM     21  C   UNL     1      -0.554   8.666 -12.258  0.00  0.00    +0.000 C 
BRANCH  21  22
ATOM     22  O   UNL     1       0.063   8.702 -13.476  0.00  0.00    +0.000 OA
BRANCH  22  23
ATOM     23  C   UNL     1      -0.123   9.906 -14.227  0.00  0.00    +0.000 C 
ATOM     24  H   UNL     1      -0.310  10.747 -13.553  0.00  0.00    +0.000 HD
ATOM     25  H   UNL     1      -0.996   9.773 -14.871  0.00  0.00    +0.000 HD
ATOM     26  H   UNL     1       0.751  10.100 -14.855  0.00  0.00    +0.000 HD
ENDBRANCH  22  23
ENDBRANCH  21  22
ENDBRANCH  17  21
ENDBRANCH  14  17
ENDBRANCH   1  14
TORSDOF 8
ENDMDL
MODEL 3
REMARK VINA RESULT:    -4.111     28.078     28.527
REMARK INTER + INTRA:          -6.165
REMARK INTER:                  -5.966
REMARK INTRA:                  -0.199
REMARK UNBOUND:                -0.371
REMARK  Name = 7826
REMARK  8 active torsions:
REMARK  status: ('A' for Active; 'I' for Inactive)
REMARK    1  A    between atoms: O_1  and  C_9
REMARK    2  A    between atoms: O_1  and  C_10
REMARK    3  A    between atoms: C_3  and  C_4
REMARK    4  A    between atoms: C_3  and  C_5
REMARK    5  A    between atoms: C_4  and  C_6
REMARK    6  A    between atoms: C_5  and  C_7
REMARK    7  A    between atoms: C_6  and  C_8
REMARK    8  A    between atoms: C_7  and  C_9
REMARK                            x       y       z     vdW  Elec       q    Type
REMARK                         _______ _______ _______ _____ _____    ______ ____
ROOT
ATOM      1  C   UNL     1     -21.417  -2.404   5.320  0.00  0.00    +0.000 C 
ATOM      2  H   UNL     1     -21.934  -2.481   4.356  0.00  0.00    +0.000 HD
ATOM      3  H   UNL     1     -22.177  -2.502   6.104  0.00  0.00    +0.000 HD
ENDROOT
BRANCH   1   4
ATOM      4  C   UNL     1     -20.735  -1.040   5.433  0.00  0.00    +0.000 C 
ATOM      5  H   UNL     1     -19.932  -0.966   4.689  0.00  0.00    +0.000 HD
ATOM      6  H   UNL     1     -21.459  -0.248   5.207  0.00  0.00    +0.000 HD
BRANCH   4   7
ATOM      7  C   UNL     1     -20.156  -0.822   6.831  0.00  0.00    +0.000 C 
ATOM      8  H   UNL     1     -19.538   0.084   6.841  0.00  0.00    +0.000 HD
ATOM      9  H   UNL     1     -19.505  -1.662   7.100  0.00  0.00    +0.000 HD
BRANCH   7  10
ATOM     10  C   UNL     1     -21.254  -0.689   7.874  0.00  0.00    +0.000 C 
ATOM     11  H   UNL     1     -21.261  -1.551   8.548  0.00  0.00    +0.000 HD
ATOM     12  H   UNL     1     -22.233  -0.629   7.388  0.00  0.00    +0.000 HD
ATOM     13  H   UNL     1     -21.117   0.216   8.475  0.00  0.00    +0.000 HD
ENDBRANCH   7  10
ENDBRANCH   4   7
ENDBRANCH   1   4
BRANCH   1  14
ATOM     14  C   UNL     1     -20.402  -3.545   5.448  0.00  0.00    +0.000 C 
ATOM     15  H   UNL     1     -19.393  -3.128   5.559  0.00  0.00    +0.000 HD
ATOM     16  H   UNL     1     -20.606  -4.114   6.364  0.00  0.00    +0.000 HD
BRANCH  14  17
ATOM     17  C   UNL     1     -20.432  -4.491   4.248  0.00  0.00    +0.000 C 
ATOM     18  H   UNL     1     -21.373  -5.054   4.248  0.00  0.00    +0.000 HD
ATOM     19  H   UNL     1     -20.371  -3.905   3.324  0.00  0.00    +0.000 HD
BRANCH  17  21
ATOM     20  O   UNL     1     -18.450  -5.595   5.125  0.00  0.00    +0.000 OA
ATOM     21  C   UNL     1     -19.295  -5.488   4.247  0.00  0.00    +0.000 C 
BRANCH  21  22
ATOM     22  O   UNL     1     -19.349  -6.222   3.096  0.00  0.00    +0.000 OA
BRANCH  22  23
ATOM     23  C   UNL     1     -20.340  -5.812   2.149  0.00  0.00    +0.000 C 
ATOM     24  H   UNL     1     -20.223  -4.750   1.915  0.00  0.00    +0.000 HD
ATOM     25  H   UNL     1     -21.324  -5.966   2.599  0.00  0.00    +0.000 HD
ATOM     26  H   UNL     1     -20.270  -6.419   1.241  0.00  0.00    +0.000 HD
ENDBRANCH  22  23
ENDBRANCH  21  22
ENDBRANCH  17  21
ENDBRANCH  14  17
ENDBRANCH   1  14
TORSDOF 8
ENDMDL
MODEL 4
REMARK VINA RESULT:    -4.045      1.774      2.198
REMARK INTER + INTRA:          -6.070
REMARK INTER:                  -5.805
REMARK INTRA:                  -0.266
REMARK UNBOUND:                -0.371
REMARK  Name = 7826
REMARK  8 active torsions:
REMARK  status: ('A' for Active; 'I' for Inactive)
REMARK    1  A    between atoms: O_1  and  C_9
REMARK    2  A    between atoms: O_1  and  C_10
REMARK    3  A    between atoms: C_3  and  C_4
REMARK    4  A    between atoms: C_3  and  C_5
REMARK    5  A    between atoms: C_4  and  C_6
REMARK    6  A    between atoms: C_5  and  C_7
REMARK    7  A    between atoms: C_6  and  C_8
REMARK    8  A    between atoms: C_7  and  C_9
REMARK                            x       y       z     vdW  Elec       q    Type
REMARK                         _______ _______ _______ _____ _____    ______ ____
ROOT
ATOM      1  C   UNL     1       6.594   7.956   1.127  0.00  0.00    +0.000 C 
ATOM      2  H   UNL     1       5.640   7.489   1.404  0.00  0.00    +0.000 HD
ATOM      3  H   UNL     1       7.261   7.155   0.789  0.00  0.00    +0.000 HD
ENDROOT
BRANCH   1   4
ATOM      4  C   UNL     1       7.202   8.650   2.348  0.00  0.00    +0.000 C 
ATOM      5  H   UNL     1       8.234   8.308   2.490  0.00  0.00    +0.000 HD
ATOM      6  H   UNL     1       7.241   9.731   2.172  0.00  0.00    +0.000 HD
BRANCH   4   7
ATOM      7  C   UNL     1       6.391   8.364   3.612  0.00  0.00    +0.000 C 
ATOM      8  H   UNL     1       5.485   8.981   3.620  0.00  0.00    +0.000 HD
ATOM      9  H   UNL     1       6.976   8.634   4.498  0.00  0.00    +0.000 HD
BRANCH   7  10
ATOM     10  C   UNL     1       5.998   6.898   3.702  0.00  0.00    +0.000 C 
ATOM     11  H   UNL     1       6.020   6.425   2.715  0.00  0.00    +0.000 HD
ATOM     12  H   UNL     1       4.985   6.801   4.103  0.00  0.00    +0.000 HD
ATOM     13  H   UNL     1       6.679   6.349   4.362  0.00  0.00    +0.000 HD
ENDBRANCH   7  10
ENDBRANCH   4   7
ENDBRANCH   1   4
BRANCH   1  14
ATOM     14  C   UNL     1       6.364   8.948  -0.018  0.00  0.00    +0.000 C 
ATOM     15  H   UNL     1       7.290   9.503  -0.214  0.00  0.00    +0.000 HD
ATOM     16  H   UNL     1       6.132   8.396  -0.938  0.00  0.00    +0.000 HD
BRANCH  14  17
ATOM     17  C   UNL     1       5.235   9.933   0.280  0.00  0.00    +0.000 C 
ATOM     18  H   UNL     1       4.365   9.694  -0.344  0.00  0.00    +0.000 HD
ATOM     19  H   UNL     1       4.948   9.846   1.334  0.00  0.00    +0.000 HD
BRANCH  17  21
ATOM     20  O   UNL     1       6.647  11.741  -0.529  0.00  0.00    +0.000 OA
ATOM     21  C   UNL     1       5.615  11.373   0.014  0.00  0.00    +0.000 C 
BRANCH  21  22
ATOM     22  O   UNL     1       4.636  12.189   0.507  0.00  0.00    +0.000 OA
BRANCH  22  23
ATOM     23  C   UNL     1       3.296  11.819   0.167  0.00  0.00    +0.000 C 
ATOM     24  H   UNL     1       2.881  12.523  -0.560  0.00  0.00    +0.000 HD
ATOM     25  H   UNL     1       2.692  11.859   1.078  0.00  0.00    +0.000 HD
ATOM     26  H   UNL     1       3.273  10.798  -0.225  0.00  0.00    +0.000 HD
ENDBRANCH  22  23
ENDBRANCH  21  22
ENDBRANCH  17  21
ENDBRANCH  14  17
ENDBRANCH   1  14
TORSDOF 8
ENDMDL
MODEL 5
REMARK VINA RESULT:    -3.862     13.584     15.470
REMARK INTER + INTRA:          -5.813
REMARK INTER:                  -5.420
REMARK INTRA:                  -0.394
REMARK UNBOUND:                -0.371
REMARK  Name = 7826
REMARK  8 active torsions:
REMARK  status: ('A' for Active; 'I' for Inactive)
REMARK    1  A    between atoms: O_1  and  C_9
REMARK    2  A    between atoms: O_1  and  C_10
REMARK    3  A    between atoms: C_3  and  C_4
REMARK    4  A    between atoms: C_3  and  C_5
REMARK    5  A    between atoms: C_4  and  C_6
REMARK    6  A    between atoms: C_5  and  C_7
REMARK    7  A    between atoms: C_6  and  C_8
REMARK    8  A    between atoms: C_7  and  C_9
REMARK                            x       y       z     vdW  Elec       q    Type
REMARK                         _______ _______ _______ _____ _____    ______ ____
ROOT
ATOM      1  C   UNL     1      -4.531   6.719 -10.591  0.00  0.00    +0.000 C 
ATOM      2  H   UNL     1      -4.895   5.690 -10.480  0.00  0.00    +0.000 HD
ATOM      3  H   UNL     1      -5.333   7.385 -10.251  0.00  0.00    +0.000 HD
ENDROOT
BRANCH   1   4
ATOM      4  C   UNL     1      -4.218   7.000 -12.061  0.00  0.00    +0.000 C 
ATOM      5  H   UNL     1      -3.210   7.423 -12.150  0.00  0.00    +0.000 HD
ATOM      6  H   UNL     1      -4.223   6.059 -12.624  0.00  0.00    +0.000 HD
BRANCH   4   7
ATOM      7  C   UNL     1      -5.233   7.968 -12.670  0.00  0.00    +0.000 C 
ATOM      8  H   UNL     1      -6.136   7.998 -12.050  0.00  0.00    +0.000 HD
ATOM      9  H   UNL     1      -5.534   7.615 -13.664  0.00  0.00    +0.000 HD
BRANCH   7  10
ATOM     10  C   UNL     1      -4.662   9.371 -12.791  0.00  0.00    +0.000 C 
ATOM     11  H   UNL     1      -3.705   9.361 -13.322  0.00  0.00    +0.000 HD
ATOM     12  H   UNL     1      -4.496   9.800 -11.798  0.00  0.00    +0.000 HD
ATOM     13  H   UNL     1      -5.349  10.029 -13.335  0.00  0.00    +0.000 HD
ENDBRANCH   7  10
ENDBRANCH   4   7
ENDBRANCH   1   4
BRANCH   1  14
ATOM     14  C   UNL     1      -3.293   6.920  -9.711  0.00  0.00    +0.000 C 
ATOM     15  H   UNL     1      -3.601   7.274  -8.719  0.00  0.00    +0.000 HD
ATOM     16  H   UNL     1      -2.793   5.955  -9.556  0.00  0.00    +0.000 HD
BRANCH  14  17
ATOM     17  C   UNL     1      -2.301   7.911 -10.317  0.00  0.00    +0.000 C 
ATOM     18  H   UNL     1      -1.297   7.469 -10.323  0.00  0.00    +0.000 HD
ATOM     19  H   UNL     1      -2.595   8.133 -11.349  0.00  0.00    +0.000 HD
BRANCH  17  21
ATOM     20  O   UNL     1      -2.933   9.525  -8.610  0.00  0.00    +0.000 OA
ATOM     21  C   UNL     1      -2.226   9.219  -9.560  0.00  0.00    +0.000 C 
BRANCH  21  22
ATOM     22  O   UNL     1      -1.267  10.008 -10.129  0.00  0.00    +0.000 OA
BRANCH  22  23
ATOM     23  C   UNL     1      -0.900   9.664 -11.468  0.00  0.00    +0.000 C 
ATOM     24  H   UNL     1      -0.006   9.033 -11.466  0.00  0.00    +0.000 HD
ATOM     25  H   UNL     1      -0.674  10.589 -12.007  0.00  0.00    +0.000 HD
ATOM     26  H   UNL     1      -1.729   9.159 -11.971  0.00  0.00    +0.000 HD
ENDBRANCH  22  23
ENDBRANCH  21  22
ENDBRANCH  17  21
ENDBRANCH  14  17
ENDBRANCH   1  14
TORSDOF 8
ENDMDL
MODEL 6
REMARK VINA RESULT:    -3.815     27.951     28.422
REMARK INTER + INTRA:          -5.747
REMARK INTER:                  -5.476
REMARK INTRA:                  -0.271
REMARK UNBOUND:                -0.371
REMARK  Name = 7826
REMARK  8 active torsions:
REMARK  status: ('A' for Active; 'I' for Inactive)
REMARK    1  A    between atoms: O_1  and  C_9
REMARK    2  A    between atoms: O_1  and  C_10
REMARK    3  A    between atoms: C_3  and  C_4
REMARK    4  A    between atoms: C_3  and  C_5
REMARK    5  A    between atoms: C_4  and  C_6
REMARK    6  A    between atoms: C_5  and  C_7
REMARK    7  A    between atoms: C_6  and  C_8
REMARK    8  A    between atoms: C_7  and  C_9
REMARK                            x       y       z     vdW  Elec       q    Type
REMARK                         _______ _______ _______ _____ _____    ______ ____
ROOT
ATOM      1  C   UNL     1     -21.738  -2.539   5.758  0.00  0.00    +0.000 C 
ATOM      2  H   UNL     1     -21.463  -1.800   4.996  0.00  0.00    +0.000 HD
ATOM      3  H   UNL     1     -22.804  -2.398   5.976  0.00  0.00    +0.000 HD
ENDROOT
BRANCH   1   4
ATOM      4  C   UNL     1     -20.919  -2.303   7.028  0.00  0.00    +0.000 C 
ATOM      5  H   UNL     1     -21.567  -2.392   7.908  0.00  0.00    +0.000 HD
ATOM      6  H   UNL     1     -20.148  -3.077   7.116  0.00  0.00    +0.000 HD
BRANCH   4   7
ATOM      7  C   UNL     1     -20.260  -0.923   7.016  0.00  0.00    +0.000 C 
ATOM      8  H   UNL     1     -19.195  -1.017   7.257  0.00  0.00    +0.000 HD
ATOM      9  H   UNL     1     -20.713  -0.288   7.787  0.00  0.00    +0.000 HD
BRANCH   7  10
ATOM     10  C   UNL     1     -20.409  -0.246   5.663  0.00  0.00    +0.000 C 
ATOM     11  H   UNL     1     -19.574  -0.501   5.003  0.00  0.00    +0.000 HD
ATOM     12  H   UNL     1     -20.428   0.841   5.783  0.00  0.00    +0.000 HD
ATOM     13  H   UNL     1     -21.340  -0.550   5.173  0.00  0.00    +0.000 HD
ENDBRANCH   7  10
ENDBRANCH   4   7
ENDBRANCH   1   4
BRANCH   1  14
ATOM     14  C   UNL     1     -21.513  -3.951   5.206  0.00  0.00    +0.000 C 
ATOM     15  H   UNL     1     -21.966  -4.686   5.884  0.00  0.00    +0.000 HD
ATOM     16  H   UNL     1     -22.031  -4.053   4.244  0.00  0.00    +0.000 HD
BRANCH  14  17
ATOM     17  C   UNL     1     -20.032  -4.276   5.021  0.00  0.00    +0.000 C 
ATOM     18  H   UNL     1     -19.453  -3.345   4.984  0.00  0.00    +0.000 HD
ATOM     19  H   UNL     1     -19.683  -4.874   5.871  0.00  0.00    +0.000 HD
BRANCH  17  21
ATOM     20  O   UNL     1     -20.591  -5.574   3.042  0.00  0.00    +0.000 OA
ATOM     21  C   UNL     1     -19.745  -5.050   3.753  0.00  0.00    +0.000 C 
BRANCH  21  22
ATOM     22  O   UNL     1     -18.394  -5.093   3.554  0.00  0.00    +0.000 OA
BRANCH  22  23
ATOM     23  C   UNL     1     -17.968  -4.982   2.193  0.00  0.00    +0.000 C 
ATOM     24  H   UNL     1     -17.176  -4.232   2.105  0.00  0.00    +0.000 HD
ATOM     25  H   UNL     1     -18.824  -4.660   1.594  0.00  0.00    +0.000 HD
ATOM     26  H   UNL     1     -17.625  -5.952   1.823  0.00  0.00    +0.000 HD
ENDBRANCH  22  23
ENDBRANCH  21  22
ENDBRANCH  17  21
ENDBRANCH  14  17
ENDBRANCH   1  14
TORSDOF 8
ENDMDL
MODEL 7
REMARK VINA RESULT:    -3.807     13.881     15.273
REMARK INTER + INTRA:          -5.735
REMARK INTER:                  -5.557
REMARK INTRA:                  -0.178
REMARK UNBOUND:                -0.371
REMARK  Name = 7826
REMARK  8 active torsions:
REMARK  status: ('A' for Active; 'I' for Inactive)
REMARK    1  A    between atoms: O_1  and  C_9
REMARK    2  A    between atoms: O_1  and  C_10
REMARK    3  A    between atoms: C_3  and  C_4
REMARK    4  A    between atoms: C_3  and  C_5
REMARK    5  A    between atoms: C_4  and  C_6
REMARK    6  A    between atoms: C_5  and  C_7
REMARK    7  A    between atoms: C_6  and  C_8
REMARK    8  A    between atoms: C_7  and  C_9
REMARK                            x       y       z     vdW  Elec       q    Type
REMARK                         _______ _______ _______ _____ _____    ______ ____
ROOT
ATOM      1  C   UNL     1      -8.441  11.239   6.945  0.00  0.00    +0.000 C 
ATOM      2  H   UNL     1      -9.224  11.854   7.406  0.00  0.00    +0.000 HD
ATOM      3  H   UNL     1      -7.478  11.698   7.198  0.00  0.00    +0.000 HD
ENDROOT
BRANCH   1   4
ATOM      4  C   UNL     1      -8.620  11.226   5.426  0.00  0.00    +0.000 C 
ATOM      5  H   UNL     1      -9.004  10.249   5.109  0.00  0.00    +0.000 HD
ATOM      6  H   UNL     1      -9.367  11.976   5.139  0.00  0.00    +0.000 HD
BRANCH   4   7
ATOM      7  C   UNL     1      -7.301  11.514   4.708  0.00  0.00    +0.000 C 
ATOM      8  H   UNL     1      -7.453  11.478   3.623  0.00  0.00    +0.000 HD
ATOM      9  H   UNL     1      -6.564  10.742   4.959  0.00  0.00    +0.000 HD
BRANCH   7  10
ATOM     10  C   UNL     1      -6.745  12.876   5.090  0.00  0.00    +0.000 C 
ATOM     11  H   UNL     1      -6.052  13.245   4.327  0.00  0.00    +0.000 HD
ATOM     12  H   UNL     1      -6.205  12.813   6.039  0.00  0.00    +0.000 HD
ATOM     13  H   UNL     1      -7.550  13.610   5.207  0.00  0.00    +0.000 HD
ENDBRANCH   7  10
ENDBRANCH   4   7
ENDBRANCH   1   4
BRANCH   1  14
ATOM     14  C   UNL     1      -8.497   9.821   7.524  0.00  0.00    +0.000 C 
ATOM     15  H   UNL     1      -9.181   9.207   6.924  0.00  0.00    +0.000 HD
ATOM     16  H   UNL     1      -7.508   9.354   7.444  0.00  0.00    +0.000 HD
BRANCH  14  17
ATOM     17  C   UNL     1      -8.948   9.804   8.983  0.00  0.00    +0.000 C 
ATOM     18  H   UNL     1      -9.103  10.832   9.332  0.00  0.00    +0.000 HD
ATOM     19  H   UNL     1      -9.896   9.258   9.063  0.00  0.00    +0.000 HD
BRANCH  17  21
ATOM     20  O   UNL     1      -6.752   9.397   9.946  0.00  0.00    +0.000 OA
ATOM     21  C   UNL     1      -7.949   9.146   9.909  0.00  0.00    +0.000 C 
BRANCH  21  22
ATOM     22  O   UNL     1      -8.594   8.210  10.667  0.00  0.00    +0.000 OA
BRANCH  22  23
ATOM     23  C   UNL     1      -9.939   8.532  11.032  0.00  0.00    +0.000 C 
ATOM     24  H   UNL     1     -10.483   7.625  11.311  0.00  0.00    +0.000 HD
ATOM     25  H   UNL     1     -10.428   8.980  10.163  0.00  0.00    +0.000 HD
ATOM     26  H   UNL     1      -9.946   9.256  11.851  0.00  0.00    +0.000 HD
ENDBRANCH  22  23
ENDBRANCH  21  22
ENDBRANCH  17  21
ENDBRANCH  14  17
ENDBRANCH   1  14
TORSDOF 8
ENDMDL
MODEL 8
REMARK VINA RESULT:    -3.712     13.167     14.570
REMARK INTER + INTRA:          -5.602
REMARK INTER:                  -5.351
REMARK INTRA:                  -0.251
REMARK UNBOUND:                -0.371
REMARK  Name = 7826
REMARK  8 active torsions:
REMARK  status: ('A' for Active; 'I' for Inactive)
REMARK    1  A    between atoms: O_1  and  C_9
REMARK    2  A    between atoms: O_1  and  C_10
REMARK    3  A    between atoms: C_3  and  C_4
REMARK    4  A    between atoms: C_3  and  C_5
REMARK    5  A    between atoms: C_4  and  C_6
REMARK    6  A    between atoms: C_5  and  C_7
REMARK    7  A    between atoms: C_6  and  C_8
REMARK    8  A    between atoms: C_7  and  C_9
REMARK                            x       y       z     vdW  Elec       q    Type
REMARK                         _______ _______ _______ _____ _____    ______ ____
ROOT
ATOM      1  C   UNL     1      -8.009  10.796   5.268  0.00  0.00    +0.000 C 
ATOM      2  H   UNL     1      -7.171  10.103   5.419  0.00  0.00    +0.000 HD
ATOM      3  H   UNL     1      -8.696  10.324   4.556  0.00  0.00    +0.000 HD
ENDROOT
BRANCH   1   4
ATOM      4  C   UNL     1      -7.492  12.114   4.688  0.00  0.00    +0.000 C 
ATOM      5  H   UNL     1      -6.655  11.914   4.008  0.00  0.00    +0.000 HD
ATOM      6  H   UNL     1      -8.283  12.588   4.095  0.00  0.00    +0.000 HD
BRANCH   4   7
ATOM      7  C   UNL     1      -7.037  13.067   5.793  0.00  0.00    +0.000 C 
ATOM      8  H   UNL     1      -6.718  12.494   6.671  0.00  0.00    +0.000 HD
ATOM      9  H   UNL     1      -7.875  13.701   6.106  0.00  0.00    +0.000 HD
BRANCH   7  10
ATOM     10  C   UNL     1      -5.891  13.951   5.329  0.00  0.00    +0.000 C 
ATOM     11  H   UNL     1      -6.251  14.946   5.047  0.00  0.00    +0.000 HD
ATOM     12  H   UNL     1      -5.400  13.508   4.457  0.00  0.00    +0.000 HD
ATOM     13  H   UNL     1      -5.141  14.068   6.118  0.00  0.00    +0.000 HD
ENDBRANCH   7  10
ENDBRANCH   4   7
ENDBRANCH   1   4
BRANCH   1  14
ATOM     14  C   UNL     1      -8.731  11.021   6.601  0.00  0.00    +0.000 C 
ATOM     15  H   UNL     1      -8.173  11.750   7.203  0.00  0.00    +0.000 HD
ATOM     16  H   UNL     1      -9.717  11.464   6.412  0.00  0.00    +0.000 HD
BRANCH  14  17
ATOM     17  C   UNL     1      -8.902   9.729   7.398  0.00  0.00    +0.000 C 
ATOM     18  H   UNL     1      -9.959   9.437   7.402  0.00  0.00    +0.000 HD
ATOM     19  H   UNL     1      -8.317   8.932   6.925  0.00  0.00    +0.000 HD
BRANCH  17  21
ATOM     20  O   UNL     1      -8.829   9.140   9.757  0.00  0.00    +0.000 OA
ATOM     21  C   UNL     1      -8.451   9.852   8.837  0.00  0.00    +0.000 C 
BRANCH  21  22
ATOM     22  O   UNL     1      -7.582  10.901   8.942  0.00  0.00    +0.000 OA
BRANCH  22  23
ATOM     23  C   UNL     1      -6.642  10.817  10.018  0.00  0.00    +0.000 C 
ATOM     24  H   UNL     1      -5.787  11.472   9.826  0.00  0.00    +0.000 HD
ATOM     25  H   UNL     1      -6.285   9.785  10.077  0.00  0.00    +0.000 HD
ATOM     26  H   UNL     1      -7.124  11.077  10.964  0.00  0.00    +0.000 HD
ENDBRANCH  22  23
ENDBRANCH  21  22
ENDBRANCH  17  21
ENDBRANCH  14  17
ENDBRANCH   1  14
TORSDOF 8
ENDMDL
MODEL 9
REMARK VINA RESULT:    -3.667      2.626      4.546
REMARK INTER + INTRA:          -5.539
REMARK INTER:                  -5.198
REMARK INTRA:                  -0.340
REMARK UNBOUND:                -0.371
REMARK  Name = 7826
REMARK  8 active torsions:
REMARK  status: ('A' for Active; 'I' for Inactive)
REMARK    1  A    between atoms: O_1  and  C_9
REMARK    2  A    between atoms: O_1  and  C_10
REMARK    3  A    between atoms: C_3  and  C_4
REMARK    4  A    between atoms: C_3  and  C_5
REMARK    5  A    between atoms: C_4  and  C_6
REMARK    6  A    between atoms: C_5  and  C_7
REMARK    7  A    between atoms: C_6  and  C_8
REMARK    8  A    between atoms: C_7  and  C_9
REMARK                            x       y       z     vdW  Elec       q    Type
REMARK                         _______ _______ _______ _____ _____    ______ ____
ROOT
ATOM      1  C   UNL     1       5.806  10.095  -0.188  0.00  0.00    +0.000 C 
ATOM      2  H   UNL     1       5.864  11.031   0.381  0.00  0.00    +0.000 HD
ATOM      3  H   UNL     1       5.872  10.358  -1.251  0.00  0.00    +0.000 HD
ENDROOT
BRANCH   1   4
ATOM      4  C   UNL     1       4.470   9.404   0.088  0.00  0.00    +0.000 C 
ATOM      5  H   UNL     1       3.914   9.289  -0.851  0.00  0.00    +0.000 HD
ATOM      6  H   UNL     1       4.653   8.396   0.479  0.00  0.00    +0.000 HD
BRANCH   4   7
ATOM      7  C   UNL     1       3.629  10.198   1.087  0.00  0.00    +0.000 C 
ATOM      8  H   UNL     1       2.640  10.401   0.661  0.00  0.00    +0.000 HD
ATOM      9  H   UNL     1       4.103  11.167   1.285  0.00  0.00    +0.000 HD
BRANCH   7  10
ATOM     10  C   UNL     1       3.465   9.447   2.398  0.00  0.00    +0.000 C 
ATOM     11  H   UNL     1       3.307  10.140   3.230  0.00  0.00    +0.000 HD
ATOM     12  H   UNL     1       4.362   8.858   2.612  0.00  0.00    +0.000 HD
ATOM     13  H   UNL     1       2.611   8.763   2.354  0.00  0.00    +0.000 HD
ENDBRANCH   7  10
ENDBRANCH   4   7
ENDBRANCH   1   4
BRANCH   1  14
ATOM     14  C   UNL     1       6.987   9.194   0.189  0.00  0.00    +0.000 C 
ATOM     15  H   UNL     1       7.530   8.901  -0.719  0.00  0.00    +0.000 HD
ATOM     16  H   UNL     1       7.696   9.760   0.806  0.00  0.00    +0.000 HD
BRANCH  14  17
ATOM     17  C   UNL     1       6.547   7.941   0.943  0.00  0.00    +0.000 C 
ATOM     18  H   UNL     1       5.472   7.782   0.796  0.00  0.00    +0.000 HD
ATOM     19  H   UNL     1       7.090   7.073   0.552  0.00  0.00    +0.000 HD
BRANCH  17  21
ATOM     20  O   UNL     1       7.609   8.767   2.970  0.00  0.00    +0.000 OA
ATOM     21  C   UNL     1       6.803   8.021   2.432  0.00  0.00    +0.000 C 
BRANCH  21  22
ATOM     22  O   UNL     1       6.012   7.106   3.069  0.00  0.00    +0.000 OA
BRANCH  22  23
ATOM     23  C   UNL     1       6.171   7.036   4.489  0.00  0.00    +0.000 C 
ATOM     24  H   UNL     1       7.020   7.649   4.806  0.00  0.00    +0.000 HD
ATOM     25  H   UNL     1       6.371   5.995   4.758  0.00  0.00    +0.000 HD
ATOM     26  H   UNL     1       5.253   7.357   4.989  0.00  0.00    +0.000 HD
ENDBRANCH  22  23
ENDBRANCH  21  22
ENDBRANCH  17  21
ENDBRANCH  14  17
ENDBRANCH   1  14
TORSDOF 8
ENDMDL
MODEL 10
REMARK VINA RESULT:    -3.527     14.382     15.607
REMARK INTER + INTRA:          -5.342
REMARK INTER:                  -4.971
REMARK INTRA:                  -0.371
REMARK UNBOUND:                -0.371
REMARK  Name = 7826
REMARK  8 active torsions:
REMARK  status: ('A' for Active; 'I' for Inactive)
REMARK    1  A    between atoms: O_1  and  C_9
REMARK    2  A    between atoms: O_1  and  C_10
REMARK    3  A    between atoms: C_3  and  C_4
REMARK    4  A    between atoms: C_3  and  C_5
REMARK    5  A    between atoms: C_4  and  C_6
REMARK    6  A    between atoms: C_5  and  C_7
REMARK    7  A    between atoms: C_6  and  C_8
REMARK    8  A    between atoms: C_7  and  C_9
REMARK                            x       y       z     vdW  Elec       q    Type
REMARK                         _______ _______ _______ _____ _____    ______ ____
ROOT
ATOM      1  C   UNL     1      -1.956   6.730 -11.324  0.00  0.00    +0.000 C 
ATOM      2  H   UNL     1      -1.804   5.704 -11.681  0.00  0.00    +0.000 HD
ATOM      3  H   UNL     1      -1.698   6.744 -10.258  0.00  0.00    +0.000 HD
ENDROOT
BRANCH   1   4
ATOM      4  C   UNL     1      -3.422   7.128 -11.503  0.00  0.00    +0.000 C 
ATOM      5  H   UNL     1      -3.490   8.203 -11.710  0.00  0.00    +0.000 HD
ATOM      6  H   UNL     1      -3.840   6.605 -12.371  0.00  0.00    +0.000 HD
BRANCH   4   7
ATOM      7  C   UNL     1      -4.245   6.795 -10.258  0.00  0.00    +0.000 C 
ATOM      8  H   UNL     1      -4.687   5.797 -10.361  0.00  0.00    +0.000 HD
ATOM      9  H   UNL     1      -5.072   7.507 -10.157  0.00  0.00    +0.000 HD
BRANCH   7  10
ATOM     10  C   UNL     1      -3.393   6.837  -9.000  0.00  0.00    +0.000 C 
ATOM     11  H   UNL     1      -2.804   5.921  -8.893  0.00  0.00    +0.000 HD
ATOM     12  H   UNL     1      -4.029   6.938  -8.115  0.00  0.00    +0.000 HD
ATOM     13  H   UNL     1      -2.704   7.689  -9.021  0.00  0.00    +0.000 HD
ENDBRANCH   7  10
ENDBRANCH   4   7
ENDBRANCH   1   4
BRANCH   1  14
ATOM     14  C   UNL     1      -1.025   7.680 -12.085  0.00  0.00    +0.000 C 
ATOM     15  H   UNL     1       0.008   7.317 -12.014  0.00  0.00    +0.000 HD
ATOM     16  H   UNL     1      -1.286   7.669 -13.151  0.00  0.00    +0.000 HD
BRANCH  14  17
ATOM     17  C   UNL     1      -1.098   9.113 -11.561  0.00  0.00    +0.000 C 
ATOM     18  H   UNL     1      -1.950   9.212 -10.878  0.00  0.00    +0.000 HD
ATOM     19  H   UNL     1      -0.177   9.346 -11.014  0.00  0.00    +0.000 HD
BRANCH  17  21
ATOM     20  O   UNL     1      -0.372  10.856 -13.094  0.00  0.00    +0.000 OA
ATOM     21  C   UNL     1      -1.263  10.142 -12.658  0.00  0.00    +0.000 C 
BRANCH  21  22
ATOM     22  O   UNL     1      -2.570  10.162 -13.056  0.00  0.00    +0.000 OA
BRANCH  22  23
ATOM     23  C   UNL     1      -2.791   9.987 -14.458  0.00  0.00    +0.000 C 
ATOM     24  H   UNL     1      -3.726  10.471 -14.758  0.00  0.00    +0.000 HD
ATOM     25  H   UNL     1      -2.872   8.916 -14.658  0.00  0.00    +0.000 HD
ATOM     26  H   UNL     1      -1.948  10.388 -15.027  0.00  0.00    +0.000 HD
ENDBRANCH  22  23
ENDBRANCH  21  22
ENDBRANCH  17  21
ENDBRANCH  14  17
ENDBRANCH   1  14
TORSDOF 8
ENDMDL
