MODEL 1
REMARK VINA RESULT:    -4.327      0.000      0.000
REMARK INTER + INTRA:          -6.739
REMARK INTER:                  -6.117
REMARK INTRA:                  -0.621
REMARK UNBOUND:                -0.515
REMARK  Name = 31289
REMARK  8 active torsions:
REMARK  status: ('A' for Active; 'I' for Inactive)
REMARK    1  A    between atoms: C_2  and  C_3
REMARK    2  A    between atoms: C_2  and  C_4
REMARK    3  A    between atoms: C_3  and  C_5
REMARK    4  A    between atoms: C_4  and  C_6
REMARK    5  A    between atoms: C_5  and  C_7
REMARK    6  A    between atoms: C_6  and  C_8
REMARK    7  A    between atoms: C_7  and  C_9
REMARK    8  A    between atoms: C_8  and  C_10
REMARK                            x       y       z     vdW  Elec       q    Type
REMARK                         _______ _______ _______ _____ _____    ______ ____
ROOT
ATOM      1  C   UNL     1       7.210   9.672  -1.273  0.00  0.00    +0.000 C 
ATOM      2  H   UNL     1       7.965   9.448  -2.036  0.00  0.00    +0.000 HD
ATOM      3  H   UNL     1       6.270   9.212  -1.603  0.00  0.00    +0.000 HD
ENDROOT
BRANCH   1   4
ATOM      4  C   UNL     1       7.635   9.058   0.063  0.00  0.00    +0.000 C 
ATOM      5  H   UNL     1       8.631   8.612  -0.045  0.00  0.00    +0.000 HD
ATOM      6  H   UNL     1       7.723   9.854   0.813  0.00  0.00    +0.000 HD
BRANCH   4   7
ATOM      7  C   UNL     1       6.662   7.994   0.581  0.00  0.00    +0.000 C 
ATOM      8  H   UNL     1       5.751   8.012  -0.029  0.00  0.00    +0.000 HD
ATOM      9  H   UNL     1       7.116   7.005   0.444  0.00  0.00    +0.000 HD
BRANCH   7  10
ATOM     10  C   UNL     1       6.287   8.180   2.052  0.00  0.00    +0.000 C 
ATOM     11  H   UNL     1       5.426   8.852   2.133  0.00  0.00    +0.000 HD
ATOM     12  H   UNL     1       5.990   7.216   2.483  0.00  0.00    +0.000 HD
BRANCH  10  13
ATOM     13  C   UNL     1       7.447   8.755   2.851  0.00  0.00    +0.000 C 
ATOM     14  H   UNL     1       7.110   9.109   3.831  0.00  0.00    +0.000 HD
ATOM     15  H   UNL     1       8.213   7.991   3.010  0.00  0.00    +0.000 HD
ATOM     16  H   UNL     1       7.909   9.595   2.321  0.00  0.00    +0.000 HD
ENDBRANCH  10  13
ENDBRANCH   7  10
ENDBRANCH   4   7
ENDBRANCH   1   4
BRANCH   1  17
ATOM     17  C   UNL     1       7.028  11.187  -1.154  0.00  0.00    +0.000 C 
ATOM     18  H   UNL     1       7.983  11.656  -0.889  0.00  0.00    +0.000 HD
ATOM     19  H   UNL     1       6.723  11.598  -2.124  0.00  0.00    +0.000 HD
BRANCH  17  20
ATOM     20  C   UNL     1       5.978  11.539  -0.094  0.00  0.00    +0.000 C 
ATOM     21  H   UNL     1       6.238  11.053   0.854  0.00  0.00    +0.000 HD
ATOM     22  H   UNL     1       5.997  12.619   0.095  0.00  0.00    +0.000 HD
BRANCH  20  23
ATOM     23  C   UNL     1       4.570  11.119  -0.507  0.00  0.00    +0.000 C 
ATOM     24  H   UNL     1       4.031  11.970  -0.937  0.00  0.00    +0.000 HD
ATOM     25  H   UNL     1       4.622  10.333  -1.268  0.00  0.00    +0.000 HD
BRANCH  23  27
ATOM     26  O   UNL     1       3.200  11.274   1.496  0.00  0.00    +0.000 OA
ATOM     27  C   UNL     1       3.731  10.585   0.632  0.00  0.00    +0.000 C 
ATOM     28  H   UNL     1       3.603   9.489   0.637  0.00  0.00    +0.000 HD
ENDBRANCH  23  27
ENDBRANCH  20  23
ENDBRANCH  17  20
ENDBRANCH   1  17
TORSDOF 8
ENDMDL
MODEL 2
REMARK VINA RESULT:    -4.250      1.282      3.252
REMARK INTER + INTRA:          -6.629
REMARK INTER:                  -6.148
REMARK INTRA:                  -0.481
REMARK UNBOUND:                -0.515
REMARK  Name = 31289
REMARK  8 active torsions:
REMARK  status: ('A' for Active; 'I' for Inactive)
REMARK    1  A    between atoms: C_2  and  C_3
REMARK    2  A    between atoms: C_2  and  C_4
REMARK    3  A    between atoms: C_3  and  C_5
REMARK    4  A    between atoms: C_4  and  C_6
REMARK    5  A    between atoms: C_5  and  C_7
REMARK    6  A    between atoms: C_6  and  C_8
REMARK    7  A    between atoms: C_7  and  C_9
REMARK    8  A    between atoms: C_8  and  C_10
REMARK                            x       y       z     vdW  Elec       q    Type
REMARK                         _______ _______ _______ _____ _____    ______ ____
ROOT
ATOM      1  C   UNL     1       7.229   8.752   1.981  0.00  0.00    +0.000 C 
ATOM      2  H   UNL     1       7.715   7.770   2.024  0.00  0.00    +0.000 HD
ATOM      3  H   UNL     1       7.148   9.118   3.012  0.00  0.00    +0.000 HD
ENDROOT
BRANCH   1   4
ATOM      4  C   UNL     1       8.093   9.716   1.166  0.00  0.00    +0.000 C 
ATOM      5  H   UNL     1       8.553  10.448   1.840  0.00  0.00    +0.000 HD
ATOM      6  H   UNL     1       8.913   9.158   0.697  0.00  0.00    +0.000 HD
BRANCH   4   7
ATOM      7  C   UNL     1       7.314  10.459   0.076  0.00  0.00    +0.000 C 
ATOM      8  H   UNL     1       6.315  10.014  -0.019  0.00  0.00    +0.000 HD
ATOM      9  H   UNL     1       7.168  11.499   0.393  0.00  0.00    +0.000 HD
BRANCH   7  10
ATOM     10  C   UNL     1       8.006  10.437  -1.287  0.00  0.00    +0.000 C 
ATOM     11  H   UNL     1       7.316  10.794  -2.060  0.00  0.00    +0.000 HD
ATOM     12  H   UNL     1       8.865  11.120  -1.278  0.00  0.00    +0.000 HD
BRANCH  10  13
ATOM     13  C   UNL     1       8.478   9.036  -1.647  0.00  0.00    +0.000 C 
ATOM     14  H   UNL     1       7.776   8.551  -2.332  0.00  0.00    +0.000 HD
ATOM     15  H   UNL     1       9.455   9.079  -2.135  0.00  0.00    +0.000 HD
ATOM     16  H   UNL     1       8.573   8.413  -0.752  0.00  0.00    +0.000 HD
ENDBRANCH  10  13
ENDBRANCH   7  10
ENDBRANCH   4   7
ENDBRANCH   1   4
BRANCH   1  17
ATOM     17  C   UNL     1       5.831   8.610   1.374  0.00  0.00    +0.000 C 
ATOM     18  H   UNL     1       5.579   9.515   0.809  0.00  0.00    +0.000 HD
ATOM     19  H   UNL     1       5.821   7.773   0.666  0.00  0.00    +0.000 HD
BRANCH  17  20
ATOM     20  C   UNL     1       4.775   8.378   2.459  0.00  0.00    +0.000 C 
ATOM     21  H   UNL     1       4.440   7.334   2.427  0.00  0.00    +0.000 HD
ATOM     22  H   UNL     1       5.226   8.529   3.448  0.00  0.00    +0.000 HD
BRANCH  20  23
ATOM     23  C   UNL     1       3.568   9.300   2.305  0.00  0.00    +0.000 C 
ATOM     24  H   UNL     1       2.661   8.712   2.131  0.00  0.00    +0.000 HD
ATOM     25  H   UNL     1       3.422   9.882   3.222  0.00  0.00    +0.000 HD
BRANCH  23  27
ATOM     26  O   UNL     1       3.359  11.464   1.217  0.00  0.00    +0.000 OA
ATOM     27  C   UNL     1       3.690  10.285   1.165  0.00  0.00    +0.000 C 
ATOM     28  H   UNL     1       4.127   9.870   0.240  0.00  0.00    +0.000 HD
ENDBRANCH  23  27
ENDBRANCH  20  23
ENDBRANCH  17  20
ENDBRANCH   1  17
TORSDOF 8
ENDMDL
MODEL 3
REMARK VINA RESULT:    -4.250      2.269      4.503
REMARK INTER + INTRA:          -6.628
REMARK INTER:                  -6.149
REMARK INTRA:                  -0.479
REMARK UNBOUND:                -0.515
REMARK  Name = 31289
REMARK  8 active torsions:
REMARK  status: ('A' for Active; 'I' for Inactive)
REMARK    1  A    between atoms: C_2  and  C_3
REMARK    2  A    between atoms: C_2  and  C_4
REMARK    3  A    between atoms: C_3  and  C_5
REMARK    4  A    between atoms: C_4  and  C_6
REMARK    5  A    between atoms: C_5  and  C_7
REMARK    6  A    between atoms: C_6  and  C_8
REMARK    7  A    between atoms: C_7  and  C_9
REMARK    8  A    between atoms: C_8  and  C_10
REMARK                            x       y       z     vdW  Elec       q    Type
REMARK                         _______ _______ _______ _____ _____    ______ ____
ROOT
ATOM      1  C   UNL     1       5.476   8.678   0.320  0.00  0.00    +0.000 C 
ATOM      2  H   UNL     1       5.593   7.625   0.035  0.00  0.00    +0.000 HD
ATOM      3  H   UNL     1       6.015   9.277  -0.425  0.00  0.00    +0.000 HD
ENDROOT
BRANCH   1   4
ATOM      4  C   UNL     1       3.993   9.053   0.299  0.00  0.00    +0.000 C 
ATOM      5  H   UNL     1       3.677   9.221  -0.738  0.00  0.00    +0.000 HD
ATOM      6  H   UNL     1       3.403   8.209   0.677  0.00  0.00    +0.000 HD
BRANCH   4   7
ATOM      7  C   UNL     1       3.668  10.297   1.130  0.00  0.00    +0.000 C 
ATOM      8  H   UNL     1       2.685  10.168   1.601  0.00  0.00    +0.000 HD
ATOM      9  H   UNL     1       4.400  10.381   1.942  0.00  0.00    +0.000 HD
BRANCH   7  10
ATOM     10  C   UNL     1       3.668  11.590   0.313  0.00  0.00    +0.000 C 
ATOM     11  H   UNL     1       2.945  12.296   0.735  0.00  0.00    +0.000 HD
ATOM     12  H   UNL     1       4.656  12.063   0.368  0.00  0.00    +0.000 HD
BRANCH  10  13
ATOM     13  C   UNL     1       3.315  11.325  -1.143  0.00  0.00    +0.000 C 
ATOM     14  H   UNL     1       3.824  12.033  -1.805  0.00  0.00    +0.000 HD
ATOM     15  H   UNL     1       3.619  10.314  -1.428  0.00  0.00    +0.000 HD
ATOM     16  H   UNL     1       2.236  11.414  -1.307  0.00  0.00    +0.000 HD
ENDBRANCH  10  13
ENDBRANCH   7  10
ENDBRANCH   4   7
ENDBRANCH   1   4
BRANCH   1  17
ATOM     17  C   UNL     1       6.087   8.909   1.704  0.00  0.00    +0.000 C 
ATOM     18  H   UNL     1       7.037   9.449   1.605  0.00  0.00    +0.000 HD
ATOM     19  H   UNL     1       5.417   9.539   2.301  0.00  0.00    +0.000 HD
BRANCH  17  20
ATOM     20  C   UNL     1       6.331   7.583   2.433  0.00  0.00    +0.000 C 
ATOM     21  H   UNL     1       6.458   6.779   1.698  0.00  0.00    +0.000 HD
ATOM     22  H   UNL     1       7.270   7.641   2.995  0.00  0.00    +0.000 HD
BRANCH  20  23
ATOM     23  C   UNL     1       5.191   7.223   3.382  0.00  0.00    +0.000 C 
ATOM     24  H   UNL     1       4.229   7.283   2.861  0.00  0.00    +0.000 HD
ATOM     25  H   UNL     1       5.316   6.195   3.743  0.00  0.00    +0.000 HD
BRANCH  23  27
ATOM     26  O   UNL     1       4.349   9.079   4.707  0.00  0.00    +0.000 OA
ATOM     27  C   UNL     1       5.100   8.116   4.598  0.00  0.00    +0.000 C 
ATOM     28  H   UNL     1       5.768   7.834   5.430  0.00  0.00    +0.000 HD
ENDBRANCH  23  27
ENDBRANCH  20  23
ENDBRANCH  17  20
ENDBRANCH   1  17
TORSDOF 8
ENDMDL
MODEL 4
REMARK VINA RESULT:    -4.248      2.179      3.393
REMARK INTER + INTRA:          -6.626
REMARK INTER:                  -6.179
REMARK INTRA:                  -0.448
REMARK UNBOUND:                -0.515
REMARK  Name = 31289
REMARK  8 active torsions:
REMARK  status: ('A' for Active; 'I' for Inactive)
REMARK    1  A    between atoms: C_2  and  C_3
REMARK    2  A    between atoms: C_2  and  C_4
REMARK    3  A    between atoms: C_3  and  C_5
REMARK    4  A    between atoms: C_4  and  C_6
REMARK    5  A    between atoms: C_5  and  C_7
REMARK    6  A    between atoms: C_6  and  C_8
REMARK    7  A    between atoms: C_7  and  C_9
REMARK    8  A    between atoms: C_8  and  C_10
REMARK                            x       y       z     vdW  Elec       q    Type
REMARK                         _______ _______ _______ _____ _____    ______ ____
ROOT
ATOM      1  C   UNL     1       6.672   7.812   2.357  0.00  0.00    +0.000 C 
ATOM      2  H   UNL     1       7.336   8.491   2.905  0.00  0.00    +0.000 HD
ATOM      3  H   UNL     1       7.297   7.238   1.662  0.00  0.00    +0.000 HD
ENDROOT
BRANCH   1   4
ATOM      4  C   UNL     1       5.992   6.856   3.339  0.00  0.00    +0.000 C 
ATOM      5  H   UNL     1       4.904   6.949   3.241  0.00  0.00    +0.000 HD
ATOM      6  H   UNL     1       6.247   5.823   3.071  0.00  0.00    +0.000 HD
BRANCH   4   7
ATOM      7  C   UNL     1       6.387   7.101   4.799  0.00  0.00    +0.000 C 
ATOM      8  H   UNL     1       5.479   7.262   5.394  0.00  0.00    +0.000 HD
ATOM      9  H   UNL     1       6.867   6.195   5.191  0.00  0.00    +0.000 HD
BRANCH   7  10
ATOM     10  C   UNL     1       7.327   8.293   4.982  0.00  0.00    +0.000 C 
ATOM     11  H   UNL     1       8.301   7.945   5.345  0.00  0.00    +0.000 HD
ATOM     12  H   UNL     1       7.496   8.783   4.016  0.00  0.00    +0.000 HD
BRANCH  10  13
ATOM     13  C   UNL     1       6.758   9.301   5.969  0.00  0.00    +0.000 C 
ATOM     14  H   UNL     1       7.070  10.318   5.714  0.00  0.00    +0.000 HD
ATOM     15  H   UNL     1       5.665   9.268   5.955  0.00  0.00    +0.000 HD
ATOM     16  H   UNL     1       7.092   9.082   6.988  0.00  0.00    +0.000 HD
ENDBRANCH  10  13
ENDBRANCH   7  10
ENDBRANCH   4   7
ENDBRANCH   1   4
BRANCH   1  17
ATOM     17  C   UNL     1       5.640   8.623   1.569  0.00  0.00    +0.000 C 
ATOM     18  H   UNL     1       6.079   9.577   1.254  0.00  0.00    +0.000 HD
ATOM     19  H   UNL     1       5.360   8.079   0.660  0.00  0.00    +0.000 HD
BRANCH  17  20
ATOM     20  C   UNL     1       4.388   8.895   2.410  0.00  0.00    +0.000 C 
ATOM     21  H   UNL     1       3.999   7.949   2.805  0.00  0.00    +0.000 HD
ATOM     22  H   UNL     1       4.656   9.508   3.280  0.00  0.00    +0.000 HD
BRANCH  20  23
ATOM     23  C   UNL     1       3.292   9.597   1.613  0.00  0.00    +0.000 C 
ATOM     24  H   UNL     1       2.871   8.917   0.864  0.00  0.00    +0.000 HD
ATOM     25  H   UNL     1       2.481   9.905   2.283  0.00  0.00    +0.000 HD
BRANCH  23  27
ATOM     26  O   UNL     1       3.188  11.918   0.894  0.00  0.00    +0.000 OA
ATOM     27  C   UNL     1       3.761  10.834   0.882  0.00  0.00    +0.000 C 
ATOM     28  H   UNL     1       4.702  10.709   0.317  0.00  0.00    +0.000 HD
ENDBRANCH  23  27
ENDBRANCH  20  23
ENDBRANCH  17  20
ENDBRANCH   1  17
TORSDOF 8
ENDMDL
MODEL 5
REMARK VINA RESULT:    -4.191      1.759      4.236
REMARK INTER + INTRA:          -6.544
REMARK INTER:                  -5.922
REMARK INTRA:                  -0.622
REMARK UNBOUND:                -0.515
REMARK  Name = 31289
REMARK  8 active torsions:
REMARK  status: ('A' for Active; 'I' for Inactive)
REMARK    1  A    between atoms: C_2  and  C_3
REMARK    2  A    between atoms: C_2  and  C_4
REMARK    3  A    between atoms: C_3  and  C_5
REMARK    4  A    between atoms: C_4  and  C_6
REMARK    5  A    between atoms: C_5  and  C_7
REMARK    6  A    between atoms: C_6  and  C_8
REMARK    7  A    between atoms: C_7  and  C_9
REMARK    8  A    between atoms: C_8  and  C_10
REMARK                            x       y       z     vdW  Elec       q    Type
REMARK                         _______ _______ _______ _____ _____    ______ ____
ROOT
ATOM      1  C   UNL     1       5.087   8.544   1.867  0.00  0.00    +0.000 C 
ATOM      2  H   UNL     1       5.002   9.103   2.807  0.00  0.00    +0.000 HD
ATOM      3  H   UNL     1       4.685   7.540   2.050  0.00  0.00    +0.000 HD
ENDROOT
BRANCH   1   4
ATOM      4  C   UNL     1       4.257   9.235   0.784  0.00  0.00    +0.000 C 
ATOM      5  H   UNL     1       4.902   9.471  -0.072  0.00  0.00    +0.000 HD
ATOM      6  H   UNL     1       3.489   8.541   0.419  0.00  0.00    +0.000 HD
BRANCH   4   7
ATOM      7  C   UNL     1       3.574  10.519   1.265  0.00  0.00    +0.000 C 
ATOM      8  H   UNL     1       2.547  10.287   1.573  0.00  0.00    +0.000 HD
ATOM      9  H   UNL     1       4.098  10.884   2.157  0.00  0.00    +0.000 HD
BRANCH   7  10
ATOM     10  C   UNL     1       3.545  11.624   0.208  0.00  0.00    +0.000 C 
ATOM     11  H   UNL     1       2.650  12.242   0.342  0.00  0.00    +0.000 HD
ATOM     12  H   UNL     1       4.416  12.279   0.331  0.00  0.00    +0.000 HD
BRANCH  10  13
ATOM     13  C   UNL     1       3.544  11.044  -1.199  0.00  0.00    +0.000 C 
ATOM     14  H   UNL     1       4.061  11.710  -1.897  0.00  0.00    +0.000 HD
ATOM     15  H   UNL     1       4.054  10.077  -1.210  0.00  0.00    +0.000 HD
ATOM     16  H   UNL     1       2.521  10.893  -1.560  0.00  0.00    +0.000 HD
ENDBRANCH  10  13
ENDBRANCH   7  10
ENDBRANCH   4   7
ENDBRANCH   1   4
BRANCH   1  17
ATOM     17  C   UNL     1       6.558   8.443   1.458  0.00  0.00    +0.000 C 
ATOM     18  H   UNL     1       7.091   9.353   1.758  0.00  0.00    +0.000 HD
ATOM     19  H   UNL     1       7.029   7.603   1.984  0.00  0.00    +0.000 HD
BRANCH  17  20
ATOM     20  C   UNL     1       6.702   8.246  -0.055  0.00  0.00    +0.000 C 
ATOM     21  H   UNL     1       6.914   7.191  -0.269  0.00  0.00    +0.000 HD
ATOM     22  H   UNL     1       5.749   8.477  -0.546  0.00  0.00    +0.000 HD
BRANCH  20  23
ATOM     23  C   UNL     1       7.806   9.114  -0.653  0.00  0.00    +0.000 C 
ATOM     24  H   UNL     1       8.528   9.397   0.121  0.00  0.00    +0.000 HD
ATOM     25  H   UNL     1       8.343   8.555  -1.428  0.00  0.00    +0.000 HD
BRANCH  23  27
ATOM     26  O   UNL     1       6.964  11.395  -0.674  0.00  0.00    +0.000 OA
ATOM     27  C   UNL     1       7.306  10.391  -1.289  0.00  0.00    +0.000 C 
ATOM     28  H   UNL     1       7.274  10.376  -2.392  0.00  0.00    +0.000 HD
ENDBRANCH  23  27
ENDBRANCH  20  23
ENDBRANCH  17  20
ENDBRANCH   1  17
TORSDOF 8
ENDMDL
MODEL 6
REMARK VINA RESULT:    -4.189     13.862     15.791
REMARK INTER + INTRA:          -6.541
REMARK INTER:                  -6.273
REMARK INTRA:                  -0.269
REMARK UNBOUND:                -0.515
REMARK  Name = 31289
REMARK  8 active torsions:
REMARK  status: ('A' for Active; 'I' for Inactive)
REMARK    1  A    between atoms: C_2  and  C_3
REMARK    2  A    between atoms: C_2  and  C_4
REMARK    3  A    between atoms: C_3  and  C_5
REMARK    4  A    between atoms: C_4  and  C_6
REMARK    5  A    between atoms: C_5  and  C_7
REMARK    6  A    between atoms: C_6  and  C_8
REMARK    7  A    between atoms: C_7  and  C_9
REMARK    8  A    between atoms: C_8  and  C_10
REMARK                            x       y       z     vdW  Elec       q    Type
REMARK                         _______ _______ _______ _____ _____    ______ ____
ROOT
ATOM      1  C   UNL     1      -8.249  11.249   7.057  0.00  0.00    +0.000 C 
ATOM      2  H   UNL     1      -7.193  11.258   7.354  0.00  0.00    +0.000 HD
ATOM      3  H   UNL     1      -8.641  12.259   7.225  0.00  0.00    +0.000 HD
ENDROOT
BRANCH   1   4
ATOM      4  C   UNL     1      -8.359  10.901   5.571  0.00  0.00    +0.000 C 
ATOM      5  H   UNL     1      -8.301   9.812   5.449  0.00  0.00    +0.000 HD
ATOM      6  H   UNL     1      -9.346  11.209   5.201  0.00  0.00    +0.000 HD
BRANCH   4   7
ATOM      7  C   UNL     1      -7.279  11.560   4.709  0.00  0.00    +0.000 C 
ATOM      8  H   UNL     1      -6.293  11.212   5.040  0.00  0.00    +0.000 HD
ATOM      9  H   UNL     1      -7.402  11.225   3.671  0.00  0.00    +0.000 HD
BRANCH   7  10
ATOM     10  C   UNL     1      -7.315  13.088   4.754  0.00  0.00    +0.000 C 
ATOM     11  H   UNL     1      -7.479  13.486   3.746  0.00  0.00    +0.000 HD
ATOM     12  H   UNL     1      -8.154  13.421   5.377  0.00  0.00    +0.000 HD
BRANCH  10  13
ATOM     13  C   UNL     1      -6.018  13.657   5.309  0.00  0.00    +0.000 C 
ATOM     14  H   UNL     1      -6.207  14.554   5.907  0.00  0.00    +0.000 HD
ATOM     15  H   UNL     1      -5.525  12.920   5.950  0.00  0.00    +0.000 HD
ATOM     16  H   UNL     1      -5.327  13.919   4.501  0.00  0.00    +0.000 HD
ENDBRANCH  10  13
ENDBRANCH   7  10
ENDBRANCH   4   7
ENDBRANCH   1   4
BRANCH   1  17
ATOM     17  C   UNL     1      -9.020  10.247   7.920  0.00  0.00    +0.000 C 
ATOM     18  H   UNL     1      -9.143  10.648   8.933  0.00  0.00    +0.000 HD
ATOM     19  H   UNL     1     -10.025  10.102   7.505  0.00  0.00    +0.000 HD
BRANCH  17  20
ATOM     20  C   UNL     1      -8.294   8.900   7.991  0.00  0.00    +0.000 C 
ATOM     21  H   UNL     1      -8.955   8.107   7.621  0.00  0.00    +0.000 HD
ATOM     22  H   UNL     1      -7.424   8.917   7.322  0.00  0.00    +0.000 HD
BRANCH  20  23
ATOM     23  C   UNL     1      -7.838   8.557   9.407  0.00  0.00    +0.000 C 
ATOM     24  H   UNL     1      -8.704   8.340  10.042  0.00  0.00    +0.000 HD
ATOM     25  H   UNL     1      -7.200   7.667   9.390  0.00  0.00    +0.000 HD
BRANCH  23  27
ATOM     26  O   UNL     1      -5.830   9.692  10.177  0.00  0.00    +0.000 OA
ATOM     27  C   UNL     1      -7.052   9.658  10.082  0.00  0.00    +0.000 C 
ATOM     28  H   UNL     1      -7.666  10.478  10.495  0.00  0.00    +0.000 HD
ENDBRANCH  23  27
ENDBRANCH  20  23
ENDBRANCH  17  20
ENDBRANCH   1  17
TORSDOF 8
ENDMDL
MODEL 7
REMARK VINA RESULT:    -4.178      2.077      4.506
REMARK INTER + INTRA:          -6.525
REMARK INTER:                  -5.699
REMARK INTRA:                  -0.825
REMARK UNBOUND:                -0.515
REMARK  Name = 31289
REMARK  8 active torsions:
REMARK  status: ('A' for Active; 'I' for Inactive)
REMARK    1  A    between atoms: C_2  and  C_3
REMARK    2  A    between atoms: C_2  and  C_4
REMARK    3  A    between atoms: C_3  and  C_5
REMARK    4  A    between atoms: C_4  and  C_6
REMARK    5  A    between atoms: C_5  and  C_7
REMARK    6  A    between atoms: C_6  and  C_8
REMARK    7  A    between atoms: C_7  and  C_9
REMARK    8  A    between atoms: C_8  and  C_10
REMARK                            x       y       z     vdW  Elec       q    Type
REMARK                         _______ _______ _______ _____ _____    ______ ____
ROOT
ATOM      1  C   UNL     1       3.991   8.409   2.180  0.00  0.00    +0.000 C 
ATOM      2  H   UNL     1       3.153   8.078   2.806  0.00  0.00    +0.000 HD
ATOM      3  H   UNL     1       4.162   7.627   1.429  0.00  0.00    +0.000 HD
ENDROOT
BRANCH   1   4
ATOM      4  C   UNL     1       3.619   9.716   1.477  0.00  0.00    +0.000 C 
ATOM      5  H   UNL     1       2.620  10.030   1.802  0.00  0.00    +0.000 HD
ATOM      6  H   UNL     1       4.316  10.504   1.789  0.00  0.00    +0.000 HD
BRANCH   4   7
ATOM      7  C   UNL     1       3.640   9.614  -0.051  0.00  0.00    +0.000 C 
ATOM      8  H   UNL     1       4.219   8.729  -0.344  0.00  0.00    +0.000 HD
ATOM      9  H   UNL     1       2.615   9.454  -0.408  0.00  0.00    +0.000 HD
BRANCH   7  10
ATOM     10  C   UNL     1       4.227  10.849  -0.734  0.00  0.00    +0.000 C 
ATOM     11  H   UNL     1       4.895  10.542  -1.547  0.00  0.00    +0.000 HD
ATOM     12  H   UNL     1       3.422  11.444  -1.181  0.00  0.00    +0.000 HD
BRANCH  10  13
ATOM     13  C   UNL     1       5.004  11.710   0.251  0.00  0.00    +0.000 C 
ATOM     14  H   UNL     1       6.066  11.745  -0.011  0.00  0.00    +0.000 HD
ATOM     15  H   UNL     1       4.619  12.734   0.245  0.00  0.00    +0.000 HD
ATOM     16  H   UNL     1       4.913  11.319   1.270  0.00  0.00    +0.000 HD
ENDBRANCH  10  13
ENDBRANCH   7  10
ENDBRANCH   4   7
ENDBRANCH   1   4
BRANCH   1  17
ATOM     17  C   UNL     1       5.244   8.579   3.041  0.00  0.00    +0.000 C 
ATOM     18  H   UNL     1       5.440   9.645   3.205  0.00  0.00    +0.000 HD
ATOM     19  H   UNL     1       5.078   8.125   4.025  0.00  0.00    +0.000 HD
BRANCH  17  20
ATOM     20  C   UNL     1       6.466   7.934   2.378  0.00  0.00    +0.000 C 
ATOM     21  H   UNL     1       7.097   7.470   3.145  0.00  0.00    +0.000 HD
ATOM     22  H   UNL     1       6.138   7.125   1.713  0.00  0.00    +0.000 HD
BRANCH  20  23
ATOM     23  C   UNL     1       7.295   8.940   1.583  0.00  0.00    +0.000 C 
ATOM     24  H   UNL     1       6.931   9.957   1.761  0.00  0.00    +0.000 HD
ATOM     25  H   UNL     1       8.343   8.896   1.903  0.00  0.00    +0.000 HD
BRANCH  23  27
ATOM     26  O   UNL     1       6.673   7.800  -0.472  0.00  0.00    +0.000 OA
ATOM     27  C   UNL     1       7.274   8.709   0.089  0.00  0.00    +0.000 C 
ATOM     28  H   UNL     1       7.845   9.447  -0.501  0.00  0.00    +0.000 HD
ENDBRANCH  23  27
ENDBRANCH  20  23
ENDBRANCH  17  20
ENDBRANCH   1  17
TORSDOF 8
ENDMDL
MODEL 8
REMARK VINA RESULT:    -4.133     28.975     30.216
REMARK INTER + INTRA:          -6.460
REMARK INTER:                  -5.958
REMARK INTRA:                  -0.503
REMARK UNBOUND:                -0.515
REMARK  Name = 31289
REMARK  8 active torsions:
REMARK  status: ('A' for Active; 'I' for Inactive)
REMARK    1  A    between atoms: C_2  and  C_3
REMARK    2  A    between atoms: C_2  and  C_4
REMARK    3  A    between atoms: C_3  and  C_5
REMARK    4  A    between atoms: C_4  and  C_6
REMARK    5  A    between atoms: C_5  and  C_7
REMARK    6  A    between atoms: C_6  and  C_8
REMARK    7  A    between atoms: C_7  and  C_9
REMARK    8  A    between atoms: C_8  and  C_10
REMARK                            x       y       z     vdW  Elec       q    Type
REMARK                         _______ _______ _______ _____ _____    ______ ____
ROOT
ATOM      1  C   UNL     1     -20.405  -0.355   5.631  0.00  0.00    +0.000 C 
ATOM      2  H   UNL     1     -21.083   0.502   5.719  0.00  0.00    +0.000 HD
ATOM      3  H   UNL     1     -19.412   0.042   5.387  0.00  0.00    +0.000 HD
ENDROOT
BRANCH   1   4
ATOM      4  C   UNL     1     -20.342  -1.096   6.968  0.00  0.00    +0.000 C 
ATOM      5  H   UNL     1     -20.623  -2.145   6.814  0.00  0.00    +0.000 HD
ATOM      6  H   UNL     1     -19.307  -1.096   7.333  0.00  0.00    +0.000 HD
BRANCH   4   7
ATOM      7  C   UNL     1     -21.246  -0.489   8.045  0.00  0.00    +0.000 C 
ATOM      8  H   UNL     1     -20.762  -0.595   9.023  0.00  0.00    +0.000 HD
ATOM      9  H   UNL     1     -21.346   0.587   7.856  0.00  0.00    +0.000 HD
BRANCH   7  10
ATOM     10  C   UNL     1     -22.636  -1.124   8.100  0.00  0.00    +0.000 C 
ATOM     11  H   UNL     1     -23.309  -0.496   8.695  0.00  0.00    +0.000 HD
ATOM     12  H   UNL     1     -23.057  -1.185   7.088  0.00  0.00    +0.000 HD
BRANCH  10  13
ATOM     13  C   UNL     1     -22.585  -2.517   8.710  0.00  0.00    +0.000 C 
ATOM     14  H   UNL     1     -21.645  -2.674   9.249  0.00  0.00    +0.000 HD
ATOM     15  H   UNL     1     -23.409  -2.651   9.417  0.00  0.00    +0.000 HD
ATOM     16  H   UNL     1     -22.672  -3.287   7.937  0.00  0.00    +0.000 HD
ENDBRANCH  10  13
ENDBRANCH   7  10
ENDBRANCH   4   7
ENDBRANCH   1   4
BRANCH   1  17
ATOM     17  C   UNL     1     -20.881  -1.278   4.507  0.00  0.00    +0.000 C 
ATOM     18  H   UNL     1     -21.803  -0.881   4.066  0.00  0.00    +0.000 HD
ATOM     19  H   UNL     1     -20.127  -1.308   3.712  0.00  0.00    +0.000 HD
BRANCH  17  20
ATOM     20  C   UNL     1     -21.137  -2.697   5.025  0.00  0.00    +0.000 C 
ATOM     21  H   UNL     1     -20.872  -2.754   6.087  0.00  0.00    +0.000 HD
ATOM     22  H   UNL     1     -22.209  -2.923   4.960  0.00  0.00    +0.000 HD
BRANCH  20  23
ATOM     23  C   UNL     1     -20.349  -3.751   4.251  0.00  0.00    +0.000 C 
ATOM     24  H   UNL     1     -21.024  -4.350   3.630  0.00  0.00    +0.000 HD
ATOM     25  H   UNL     1     -19.624  -3.264   3.589  0.00  0.00    +0.000 HD
BRANCH  23  27
ATOM     26  O   UNL     1     -18.615  -5.375   4.769  0.00  0.00    +0.000 OA
ATOM     27  C   UNL     1     -19.579  -4.709   5.131  0.00  0.00    +0.000 C 
ATOM     28  H   UNL     1     -19.940  -4.773   6.172  0.00  0.00    +0.000 HD
ENDBRANCH  23  27
ENDBRANCH  20  23
ENDBRANCH  17  20
ENDBRANCH   1  17
TORSDOF 8
ENDMDL
MODEL 9
REMARK VINA RESULT:    -4.111     13.605     14.817
REMARK INTER + INTRA:          -6.428
REMARK INTER:                  -5.913
REMARK INTRA:                  -0.515
REMARK UNBOUND:                -0.515
REMARK  Name = 31289
REMARK  8 active torsions:
REMARK  status: ('A' for Active; 'I' for Inactive)
REMARK    1  A    between atoms: C_2  and  C_3
REMARK    2  A    between atoms: C_2  and  C_4
REMARK    3  A    between atoms: C_3  and  C_5
REMARK    4  A    between atoms: C_4  and  C_6
REMARK    5  A    between atoms: C_5  and  C_7
REMARK    6  A    between atoms: C_6  and  C_8
REMARK    7  A    between atoms: C_7  and  C_9
REMARK    8  A    between atoms: C_8  and  C_10
REMARK                            x       y       z     vdW  Elec       q    Type
REMARK                         _______ _______ _______ _____ _____    ______ ____
ROOT
ATOM      1  C   UNL     1      -2.282   9.984 -11.647  0.00  0.00    +0.000 C 
ATOM      2  H   UNL     1      -2.717   9.268 -12.354  0.00  0.00    +0.000 HD
ATOM      3  H   UNL     1      -2.351  10.977 -12.107  0.00  0.00    +0.000 HD
ENDROOT
BRANCH   1   4
ATOM      4  C   UNL     1      -3.087   9.970 -10.345  0.00  0.00    +0.000 C 
ATOM      5  H   UNL     1      -3.257  11.002 -10.015  0.00  0.00    +0.000 HD
ATOM      6  H   UNL     1      -4.074   9.532 -10.536  0.00  0.00    +0.000 HD
BRANCH   4   7
ATOM      7  C   UNL     1      -2.407   9.188  -9.217  0.00  0.00    +0.000 C 
ATOM      8  H   UNL     1      -1.391   8.918  -9.529  0.00  0.00    +0.000 HD
ATOM      9  H   UNL     1      -2.307   9.845  -8.343  0.00  0.00    +0.000 HD
BRANCH   7  10
ATOM     10  C   UNL     1      -3.164   7.922  -8.815  0.00  0.00    +0.000 C 
ATOM     11  H   UNL     1      -2.749   7.521  -7.883  0.00  0.00    +0.000 HD
ATOM     12  H   UNL     1      -4.217   8.164  -8.625  0.00  0.00    +0.000 HD
BRANCH  10  13
ATOM     13  C   UNL     1      -3.077   6.857  -9.898  0.00  0.00    +0.000 C 
ATOM     14  H   UNL     1      -2.035   6.655 -10.166  0.00  0.00    +0.000 HD
ATOM     15  H   UNL     1      -3.526   5.924  -9.548  0.00  0.00    +0.000 HD
ATOM     16  H   UNL     1      -3.610   7.173 -10.801  0.00  0.00    +0.000 HD
ENDBRANCH  10  13
ENDBRANCH   7  10
ENDBRANCH   4   7
ENDBRANCH   1   4
BRANCH   1  17
ATOM     17  C   UNL     1      -0.814   9.635 -11.394  0.00  0.00    +0.000 C 
ATOM     18  H   UNL     1      -0.178  10.484 -11.671  0.00  0.00    +0.000 HD
ATOM     19  H   UNL     1      -0.659   9.448 -10.325  0.00  0.00    +0.000 HD
BRANCH  17  20
ATOM     20  C   UNL     1      -0.391   8.400 -12.198  0.00  0.00    +0.000 C 
ATOM     21  H   UNL     1       0.662   8.171 -11.990  0.00  0.00    +0.000 HD
ATOM     22  H   UNL     1      -0.970   7.530 -11.864  0.00  0.00    +0.000 HD
BRANCH  20  23
ATOM     23  C   UNL     1      -0.578   8.590 -13.700  0.00  0.00    +0.000 C 
ATOM     24  H   UNL     1      -0.704   7.620 -14.193  0.00  0.00    +0.000 HD
ATOM     25  H   UNL     1      -1.477   9.186 -13.893  0.00  0.00    +0.000 HD
BRANCH  23  27
ATOM     26  O   UNL     1       0.931   9.101 -15.537  0.00  0.00    +0.000 OA
ATOM     27  C   UNL     1       0.577   9.291 -14.379  0.00  0.00    +0.000 C 
ATOM     28  H   UNL     1       1.103  10.030 -13.750  0.00  0.00    +0.000 HD
ENDBRANCH  23  27
ENDBRANCH  20  23
ENDBRANCH  17  20
ENDBRANCH   1  17
TORSDOF 8
ENDMDL
MODEL 10
REMARK VINA RESULT:    -4.105      2.594      3.823
REMARK INTER + INTRA:          -6.420
REMARK INTER:                  -5.827
REMARK INTRA:                  -0.593
REMARK UNBOUND:                -0.515
REMARK  Name = 31289
REMARK  8 active torsions:
REMARK  status: ('A' for Active; 'I' for Inactive)
REMARK    1  A    between atoms: C_2  and  C_3
REMARK    2  A    between atoms: C_2  and  C_4
REMARK    3  A    between atoms: C_3  and  C_5
REMARK    4  A    between atoms: C_4  and  C_6
REMARK    5  A    between atoms: C_5  and  C_7
REMARK    6  A    between atoms: C_6  and  C_8
REMARK    7  A    between atoms: C_7  and  C_9
REMARK    8  A    between atoms: C_8  and  C_10
REMARK                            x       y       z     vdW  Elec       q    Type
REMARK                         _______ _______ _______ _____ _____    ______ ____
ROOT
ATOM      1  C   UNL     1       4.465  11.516  -0.132  0.00  0.00    +0.000 C 
ATOM      2  H   UNL     1       4.138  11.089  -1.087  0.00  0.00    +0.000 HD
ATOM      3  H   UNL     1       4.048  12.529  -0.071  0.00  0.00    +0.000 HD
ENDROOT
BRANCH   1   4
ATOM      4  C   UNL     1       3.918  10.671   1.021  0.00  0.00    +0.000 C 
ATOM      5  H   UNL     1       4.354  11.022   1.965  0.00  0.00    +0.000 HD
ATOM      6  H   UNL     1       2.834  10.822   1.097  0.00  0.00    +0.000 HD
BRANCH   4   7
ATOM      7  C   UNL     1       4.200   9.174   0.865  0.00  0.00    +0.000 C 
ATOM      8  H   UNL     1       3.247   8.633   0.801  0.00  0.00    +0.000 HD
ATOM      9  H   UNL     1       4.722   9.010  -0.086  0.00  0.00    +0.000 HD
BRANCH   7  10
ATOM     10  C   UNL     1       5.033   8.591   2.007  0.00  0.00    +0.000 C 
ATOM     11  H   UNL     1       5.119   9.325   2.817  0.00  0.00    +0.000 HD
ATOM     12  H   UNL     1       4.531   7.708   2.420  0.00  0.00    +0.000 HD
BRANCH  10  13
ATOM     13  C   UNL     1       6.427   8.205   1.535  0.00  0.00    +0.000 C 
ATOM     14  H   UNL     1       6.841   8.969   0.869  0.00  0.00    +0.000 HD
ATOM     15  H   UNL     1       7.101   8.099   2.390  0.00  0.00    +0.000 HD
ATOM     16  H   UNL     1       6.408   7.252   0.996  0.00  0.00    +0.000 HD
ENDBRANCH  10  13
ENDBRANCH   7  10
ENDBRANCH   4   7
ENDBRANCH   1   4
BRANCH   1  17
ATOM     17  C   UNL     1       5.993  11.586  -0.092  0.00  0.00    +0.000 C 
ATOM     18  H   UNL     1       6.317  12.634  -0.081  0.00  0.00    +0.000 HD
ATOM     19  H   UNL     1       6.358  11.125   0.833  0.00  0.00    +0.000 HD
BRANCH  17  20
ATOM     20  C   UNL     1       6.613  10.876  -1.300  0.00  0.00    +0.000 C 
ATOM     21  H   UNL     1       6.030   9.978  -1.536  0.00  0.00    +0.000 HD
ATOM     22  H   UNL     1       6.551  11.528  -2.180  0.00  0.00    +0.000 HD
BRANCH  20  23
ATOM     23  C   UNL     1       8.069  10.483  -1.061  0.00  0.00    +0.000 C 
ATOM     24  H   UNL     1       8.740  11.226  -1.505  0.00  0.00    +0.000 HD
ATOM     25  H   UNL     1       8.274  10.443   0.015  0.00  0.00    +0.000 HD
BRANCH  23  27
ATOM     26  O   UNL     1       9.572   8.658  -1.626  0.00  0.00    +0.000 OA
ATOM     27  C   UNL     1       8.444   9.137  -1.638  0.00  0.00    +0.000 C 
ATOM     28  H   UNL     1       7.605   8.574  -2.082  0.00  0.00    +0.000 HD
ENDBRANCH  23  27
ENDBRANCH  20  23
ENDBRANCH  17  20
ENDBRANCH   1  17
TORSDOF 8
ENDMDL
