MODEL 1
REMARK VINA RESULT:    -4.395      0.000      0.000
REMARK INTER + INTRA:          -6.426
REMARK INTER:                  -6.100
REMARK INTRA:                  -0.325
REMARK UNBOUND:                -0.232
REMARK  Name = 379
REMARK  8 active torsions:
REMARK  status: ('A' for Active; 'I' for Inactive)
REMARK    1  A    between atoms: O_1  and  C_10
REMARK    2  A    between atoms: C_3  and  C_4
REMARK    3  A    between atoms: C_3  and  C_5
REMARK    4  A    between atoms: C_4  and  C_6
REMARK    5  A    between atoms: C_5  and  C_7
REMARK    6  A    between atoms: C_6  and  C_8
REMARK    7  A    between atoms: C_7  and  C_9
REMARK    8  A    between atoms: C_8  and  C_10
REMARK                            x       y       z     vdW  Elec       q    Type
REMARK                         _______ _______ _______ _____ _____    ______ ____
ROOT
ATOM      1  C   UNL     1      -1.323   9.955 -10.272  0.00  0.00    +0.000 C 
ATOM      2  H   UNL     1      -0.655   9.250  -9.761  0.00  0.00    +0.000 HD
ATOM      3  H   UNL     1      -1.223  10.917  -9.755  0.00  0.00    +0.000 HD
ENDROOT
BRANCH   1   4
ATOM      4  C   UNL     1      -0.852  10.120 -11.720  0.00  0.00    +0.000 C 
ATOM      5  H   UNL     1      -1.694  10.486 -12.324  0.00  0.00    +0.000 HD
ATOM      6  H   UNL     1      -0.087  10.907 -11.750  0.00  0.00    +0.000 HD
BRANCH   4   7
ATOM      7  C   UNL     1      -0.283   8.863 -12.385  0.00  0.00    +0.000 C 
ATOM      8  H   UNL     1       0.806   8.851 -12.252  0.00  0.00    +0.000 HD
ATOM      9  H   UNL     1      -0.666   7.979 -11.862  0.00  0.00    +0.000 HD
BRANCH   7  10
ATOM     10  C   UNL     1      -0.612   8.761 -13.874  0.00  0.00    +0.000 C 
ATOM     11  H   UNL     1      -1.574   9.246 -14.075  0.00  0.00    +0.000 HD
ATOM     12  H   UNL     1      -0.675   7.707 -14.166  0.00  0.00    +0.000 HD
BRANCH  10  14
ATOM     13  O   UNL     1       0.785  10.598 -14.650  0.00  0.00    +0.000 OA
ATOM     14  C   UNL     1       0.441   9.427 -14.730  0.00  0.00    +0.000 C 
BRANCH  14  15
ATOM     15  O   UNL     1       0.982   8.554 -15.620  0.00  0.00    +0.000 OA
ATOM     16  H   UNL     1       1.087   8.956 -16.508  0.00  0.00    +0.000 HD
ENDBRANCH  14  15
ENDBRANCH  10  14
ENDBRANCH   7  10
ENDBRANCH   4   7
ENDBRANCH   1   4
BRANCH   1  17
ATOM     17  C   UNL     1      -2.767   9.465 -10.153  0.00  0.00    +0.000 C 
ATOM     18  H   UNL     1      -3.379  10.238  -9.671  0.00  0.00    +0.000 HD
ATOM     19  H   UNL     1      -3.181   9.302 -11.155  0.00  0.00    +0.000 HD
BRANCH  17  20
ATOM     20  C   UNL     1      -2.846   8.168  -9.345  0.00  0.00    +0.000 C 
ATOM     21  H   UNL     1      -1.968   8.079  -8.697  0.00  0.00    +0.000 HD
ATOM     22  H   UNL     1      -3.729   8.188  -8.695  0.00  0.00    +0.000 HD
BRANCH  20  23
ATOM     23  C   UNL     1      -2.920   6.950 -10.253  0.00  0.00    +0.000 C 
ATOM     24  H   UNL     1      -3.847   6.950 -10.836  0.00  0.00    +0.000 HD
ATOM     25  H   UNL     1      -2.892   6.032  -9.659  0.00  0.00    +0.000 HD
ATOM     26  H   UNL     1      -2.075   6.930 -10.950  0.00  0.00    +0.000 HD
ENDBRANCH  20  23
ENDBRANCH  17  20
ENDBRANCH   1  17
TORSDOF 8
ENDMDL
MODEL 2
REMARK VINA RESULT:    -4.369      2.766      4.384
REMARK INTER + INTRA:          -6.389
REMARK INTER:                  -6.041
REMARK INTRA:                  -0.348
REMARK UNBOUND:                -0.232
REMARK  Name = 379
REMARK  8 active torsions:
REMARK  status: ('A' for Active; 'I' for Inactive)
REMARK    1  A    between atoms: O_1  and  C_10
REMARK    2  A    between atoms: C_3  and  C_4
REMARK    3  A    between atoms: C_3  and  C_5
REMARK    4  A    between atoms: C_4  and  C_6
REMARK    5  A    between atoms: C_5  and  C_7
REMARK    6  A    between atoms: C_6  and  C_8
REMARK    7  A    between atoms: C_7  and  C_9
REMARK    8  A    between atoms: C_8  and  C_10
REMARK                            x       y       z     vdW  Elec       q    Type
REMARK                         _______ _______ _______ _____ _____    ______ ____
ROOT
ATOM      1  C   UNL     1      -4.048   6.933 -10.655  0.00  0.00    +0.000 C 
ATOM      2  H   UNL     1      -4.140   7.888 -11.188  0.00  0.00    +0.000 HD
ATOM      3  H   UNL     1      -3.597   6.221 -11.359  0.00  0.00    +0.000 HD
ENDROOT
BRANCH   1   4
ATOM      4  C   UNL     1      -3.102   7.118  -9.465  0.00  0.00    +0.000 C 
ATOM      5  H   UNL     1      -3.490   6.541  -8.615  0.00  0.00    +0.000 HD
ATOM      6  H   UNL     1      -2.130   6.676  -9.720  0.00  0.00    +0.000 HD
BRANCH   4   7
ATOM      7  C   UNL     1      -2.875   8.564  -9.012  0.00  0.00    +0.000 C 
ATOM      8  H   UNL     1      -3.623   8.821  -8.252  0.00  0.00    +0.000 HD
ATOM      9  H   UNL     1      -1.898   8.633  -8.518  0.00  0.00    +0.000 HD
BRANCH   7  10
ATOM     10  C   UNL     1      -2.944   9.577 -10.154  0.00  0.00    +0.000 C 
ATOM     11  H   UNL     1      -3.260  10.552  -9.766  0.00  0.00    +0.000 HD
ATOM     12  H   UNL     1      -3.668   9.238 -10.903  0.00  0.00    +0.000 HD
BRANCH  10  14
ATOM     13  O   UNL     1      -1.376   9.532 -12.016  0.00  0.00    +0.000 OA
ATOM     14  C   UNL     1      -1.606   9.751 -10.835  0.00  0.00    +0.000 C 
BRANCH  14  15
ATOM     15  O   UNL     1      -0.661  10.195  -9.965  0.00  0.00    +0.000 OA
ATOM     16  H   UNL     1      -0.940  11.019  -9.512  0.00  0.00    +0.000 HD
ENDBRANCH  14  15
ENDBRANCH  10  14
ENDBRANCH   7  10
ENDBRANCH   4   7
ENDBRANCH   1   4
BRANCH   1  17
ATOM     17  C   UNL     1      -5.439   6.437 -10.257  0.00  0.00    +0.000 C 
ATOM     18  H   UNL     1      -6.180   7.223 -10.454  0.00  0.00    +0.000 HD
ATOM     19  H   UNL     1      -5.710   5.574 -10.876  0.00  0.00    +0.000 HD
BRANCH  17  20
ATOM     20  C   UNL     1      -5.484   6.046  -8.779  0.00  0.00    +0.000 C 
ATOM     21  H   UNL     1      -4.563   5.520  -8.504  0.00  0.00    +0.000 HD
ATOM     22  H   UNL     1      -5.543   6.946  -8.157  0.00  0.00    +0.000 HD
BRANCH  20  23
ATOM     23  C   UNL     1      -6.675   5.150  -8.477  0.00  0.00    +0.000 C 
ATOM     24  H   UNL     1      -6.991   5.254  -7.433  0.00  0.00    +0.000 HD
ATOM     25  H   UNL     1      -6.414   4.101  -8.649  0.00  0.00    +0.000 HD
ATOM     26  H   UNL     1      -7.526   5.398  -9.119  0.00  0.00    +0.000 HD
ENDBRANCH  20  23
ENDBRANCH  17  20
ENDBRANCH   1  17
TORSDOF 8
ENDMDL
MODEL 3
REMARK VINA RESULT:    -4.336     14.532     15.726
REMARK INTER + INTRA:          -6.343
REMARK INTER:                  -6.133
REMARK INTRA:                  -0.210
REMARK UNBOUND:                -0.232
REMARK  Name = 379
REMARK  8 active torsions:
REMARK  status: ('A' for Active; 'I' for Inactive)
REMARK    1  A    between atoms: O_1  and  C_10
REMARK    2  A    between atoms: C_3  and  C_4
REMARK    3  A    between atoms: C_3  and  C_5
REMARK    4  A    between atoms: C_4  and  C_6
REMARK    5  A    between atoms: C_5  and  C_7
REMARK    6  A    between atoms: C_6  and  C_8
REMARK    7  A    between atoms: C_7  and  C_9
REMARK    8  A    between atoms: C_8  and  C_10
REMARK                            x       y       z     vdW  Elec       q    Type
REMARK                         _______ _______ _______ _____ _____    ______ ____
ROOT
ATOM      1  C   UNL     1       4.668   8.099   2.814  0.00  0.00    +0.000 C 
ATOM      2  H   UNL     1       4.175   8.860   3.431  0.00  0.00    +0.000 HD
ATOM      3  H   UNL     1       3.906   7.350   2.566  0.00  0.00    +0.000 HD
ENDROOT
BRANCH   1   4
ATOM      4  C   UNL     1       5.160   8.753   1.520  0.00  0.00    +0.000 C 
ATOM      5  H   UNL     1       5.862   9.557   1.777  0.00  0.00    +0.000 HD
ATOM      6  H   UNL     1       5.736   8.011   0.951  0.00  0.00    +0.000 HD
BRANCH   4   7
ATOM      7  C   UNL     1       4.072   9.328   0.608  0.00  0.00    +0.000 C 
ATOM      8  H   UNL     1       4.488   9.470  -0.398  0.00  0.00    +0.000 HD
ATOM      9  H   UNL     1       3.266   8.591   0.505  0.00  0.00    +0.000 HD
BRANCH   7  10
ATOM     10  C   UNL     1       3.495  10.651   1.108  0.00  0.00    +0.000 C 
ATOM     11  H   UNL     1       3.804  10.822   2.145  0.00  0.00    +0.000 HD
ATOM     12  H   UNL     1       2.401  10.618   1.061  0.00  0.00    +0.000 HD
BRANCH  10  14
ATOM     13  O   UNL     1       4.959  12.500   0.504  0.00  0.00    +0.000 OA
ATOM     14  C   UNL     1       3.968  11.821   0.276  0.00  0.00    +0.000 C 
BRANCH  14  15
ATOM     15  O   UNL     1       3.149  12.039  -0.786  0.00  0.00    +0.000 OA
ATOM     16  H   UNL     1       3.104  12.989  -1.025  0.00  0.00    +0.000 HD
ENDBRANCH  14  15
ENDBRANCH  10  14
ENDBRANCH   7  10
ENDBRANCH   4   7
ENDBRANCH   1   4
BRANCH   1  17
ATOM     17  C   UNL     1       5.784   7.434   3.622  0.00  0.00    +0.000 C 
ATOM     18  H   UNL     1       5.399   7.139   4.607  0.00  0.00    +0.000 HD
ATOM     19  H   UNL     1       6.107   6.518   3.114  0.00  0.00    +0.000 HD
BRANCH  17  20
ATOM     20  C   UNL     1       6.977   8.375   3.797  0.00  0.00    +0.000 C 
ATOM     21  H   UNL     1       7.825   8.017   3.202  0.00  0.00    +0.000 HD
ATOM     22  H   UNL     1       6.720   9.375   3.426  0.00  0.00    +0.000 HD
BRANCH  20  23
ATOM     23  C   UNL     1       7.399   8.474   5.254  0.00  0.00    +0.000 C 
ATOM     24  H   UNL     1       8.483   8.354   5.358  0.00  0.00    +0.000 HD
ATOM     25  H   UNL     1       6.913   7.692   5.844  0.00  0.00    +0.000 HD
ATOM     26  H   UNL     1       7.119   9.444   5.679  0.00  0.00    +0.000 HD
ENDBRANCH  20  23
ENDBRANCH  17  20
ENDBRANCH   1  17
TORSDOF 8
ENDMDL
MODEL 4
REMARK VINA RESULT:    -4.243      1.499      2.525
REMARK INTER + INTRA:          -6.211
REMARK INTER:                  -5.753
REMARK INTRA:                  -0.459
REMARK UNBOUND:                -0.232
REMARK  Name = 379
REMARK  8 active torsions:
REMARK  status: ('A' for Active; 'I' for Inactive)
REMARK    1  A    between atoms: O_1  and  C_10
REMARK    2  A    between atoms: C_3  and  C_4
REMARK    3  A    between atoms: C_3  and  C_5
REMARK    4  A    between atoms: C_4  and  C_6
REMARK    5  A    between atoms: C_5  and  C_7
REMARK    6  A    between atoms: C_6  and  C_8
REMARK    7  A    between atoms: C_7  and  C_9
REMARK    8  A    between atoms: C_8  and  C_10
REMARK                            x       y       z     vdW  Elec       q    Type
REMARK                         _______ _______ _______ _____ _____    ______ ____
ROOT
ATOM      1  C   UNL     1      -3.903   7.090 -11.012  0.00  0.00    +0.000 C 
ATOM      2  H   UNL     1      -4.473   8.012 -10.841  0.00  0.00    +0.000 HD
ATOM      3  H   UNL     1      -4.637   6.286 -11.151  0.00  0.00    +0.000 HD
ENDROOT
BRANCH   1   4
ATOM      4  C   UNL     1      -3.088   7.244 -12.299  0.00  0.00    +0.000 C 
ATOM      5  H   UNL     1      -3.563   6.649 -13.090  0.00  0.00    +0.000 HD
ATOM      6  H   UNL     1      -3.146   8.291 -12.625  0.00  0.00    +0.000 HD
BRANCH   4   7
ATOM      7  C   UNL     1      -1.612   6.845 -12.206  0.00  0.00    +0.000 C 
ATOM      8  H   UNL     1      -1.456   6.268 -11.285  0.00  0.00    +0.000 HD
ATOM      9  H   UNL     1      -1.372   6.169 -13.036  0.00  0.00    +0.000 HD
BRANCH   7  10
ATOM     10  C   UNL     1      -0.657   8.037 -12.224  0.00  0.00    +0.000 C 
ATOM     11  H   UNL     1       0.374   7.689 -12.089  0.00  0.00    +0.000 HD
ATOM     12  H   UNL     1      -0.911   8.726 -11.411  0.00  0.00    +0.000 HD
BRANCH  10  14
ATOM     13  O   UNL     1      -0.869  10.008 -13.638  0.00  0.00    +0.000 OA
ATOM     14  C   UNL     1      -0.731   8.798 -13.528  0.00  0.00    +0.000 C 
BRANCH  14  15
ATOM     15  O   UNL     1      -0.618   7.964 -14.596  0.00  0.00    +0.000 OA
ATOM     16  H   UNL     1      -1.290   7.250 -14.573  0.00  0.00    +0.000 HD
ENDBRANCH  14  15
ENDBRANCH  10  14
ENDBRANCH   7  10
ENDBRANCH   4   7
ENDBRANCH   1   4
BRANCH   1  17
ATOM     17  C   UNL     1      -3.047   6.785  -9.781  0.00  0.00    +0.000 C 
ATOM     18  H   UNL     1      -3.333   5.810  -9.367  0.00  0.00    +0.000 HD
ATOM     19  H   UNL     1      -1.994   6.715 -10.077  0.00  0.00    +0.000 HD
BRANCH  17  20
ATOM     20  C   UNL     1      -3.212   7.867  -8.712  0.00  0.00    +0.000 C 
ATOM     21  H   UNL     1      -4.277   8.057  -8.535  0.00  0.00    +0.000 HD
ATOM     22  H   UNL     1      -2.782   7.522  -7.764  0.00  0.00    +0.000 HD
BRANCH  20  23
ATOM     23  C   UNL     1      -2.537   9.165  -9.125  0.00  0.00    +0.000 C 
ATOM     24  H   UNL     1      -2.243   9.137 -10.179  0.00  0.00    +0.000 HD
ATOM     25  H   UNL     1      -1.637   9.332  -8.525  0.00  0.00    +0.000 HD
ATOM     26  H   UNL     1      -3.206  10.019  -8.978  0.00  0.00    +0.000 HD
ENDBRANCH  20  23
ENDBRANCH  17  20
ENDBRANCH   1  17
TORSDOF 8
ENDMDL
MODEL 5
REMARK VINA RESULT:    -4.200     28.080     28.902
REMARK INTER + INTRA:          -6.151
REMARK INTER:                  -5.796
REMARK INTRA:                  -0.355
REMARK UNBOUND:                -0.232
REMARK  Name = 379
REMARK  8 active torsions:
REMARK  status: ('A' for Active; 'I' for Inactive)
REMARK    1  A    between atoms: O_1  and  C_10
REMARK    2  A    between atoms: C_3  and  C_4
REMARK    3  A    between atoms: C_3  and  C_5
REMARK    4  A    between atoms: C_4  and  C_6
REMARK    5  A    between atoms: C_5  and  C_7
REMARK    6  A    between atoms: C_6  and  C_8
REMARK    7  A    between atoms: C_7  and  C_9
REMARK    8  A    between atoms: C_8  and  C_10
REMARK                            x       y       z     vdW  Elec       q    Type
REMARK                         _______ _______ _______ _____ _____    ______ ____
ROOT
ATOM      1  C   UNL     1     -20.864  -2.549   4.690  0.00  0.00    +0.000 C 
ATOM      2  H   UNL     1     -20.237  -2.559   3.789  0.00  0.00    +0.000 HD
ATOM      3  H   UNL     1     -21.897  -2.708   4.358  0.00  0.00    +0.000 HD
ENDROOT
BRANCH   1   4
ATOM      4  C   UNL     1     -20.450  -3.714   5.595  0.00  0.00    +0.000 C 
ATOM      5  H   UNL     1     -19.861  -3.316   6.432  0.00  0.00    +0.000 HD
ATOM      6  H   UNL     1     -21.356  -4.151   6.036  0.00  0.00    +0.000 HD
BRANCH   4   7
ATOM      7  C   UNL     1     -19.649  -4.831   4.920  0.00  0.00    +0.000 C 
ATOM      8  H   UNL     1     -18.663  -4.901   5.397  0.00  0.00    +0.000 HD
ATOM      9  H   UNL     1     -20.149  -5.789   5.105  0.00  0.00    +0.000 HD
BRANCH   7  10
ATOM     10  C   UNL     1     -19.470  -4.628   3.416  0.00  0.00    +0.000 C 
ATOM     11  H   UNL     1     -18.416  -4.758   3.147  0.00  0.00    +0.000 HD
ATOM     12  H   UNL     1     -19.788  -3.617   3.140  0.00  0.00    +0.000 HD
BRANCH  10  14
ATOM     13  O   UNL     1     -21.500  -5.581   2.467  0.00  0.00    +0.000 OA
ATOM     14  C   UNL     1     -20.287  -5.616   2.614  0.00  0.00    +0.000 C 
BRANCH  14  15
ATOM     15  O   UNL     1     -19.499  -6.571   2.053  0.00  0.00    +0.000 OA
ATOM     16  H   UNL     1     -19.691  -6.688   1.098  0.00  0.00    +0.000 HD
ENDBRANCH  14  15
ENDBRANCH  10  14
ENDBRANCH   7  10
ENDBRANCH   4   7
ENDBRANCH   1   4
BRANCH   1  17
ATOM     17  C   UNL     1     -20.756  -1.182   5.369  0.00  0.00    +0.000 C 
ATOM     18  H   UNL     1     -20.057  -0.548   4.809  0.00  0.00    +0.000 HD
ATOM     19  H   UNL     1     -21.733  -0.686   5.346  0.00  0.00    +0.000 HD
BRANCH  17  20
ATOM     20  C   UNL     1     -20.281  -1.319   6.816  0.00  0.00    +0.000 C 
ATOM     21  H   UNL     1     -20.192  -2.379   7.081  0.00  0.00    +0.000 HD
ATOM     22  H   UNL     1     -19.286  -0.873   6.925  0.00  0.00    +0.000 HD
BRANCH  20  23
ATOM     23  C   UNL     1     -21.241  -0.645   7.783  0.00  0.00    +0.000 C 
ATOM     24  H   UNL     1     -20.852   0.324   8.112  0.00  0.00    +0.000 HD
ATOM     25  H   UNL     1     -21.387  -1.270   8.669  0.00  0.00    +0.000 HD
ATOM     26  H   UNL     1     -22.219  -0.483   7.317  0.00  0.00    +0.000 HD
ENDBRANCH  20  23
ENDBRANCH  17  20
ENDBRANCH   1  17
TORSDOF 8
ENDMDL
MODEL 6
REMARK VINA RESULT:    -4.159      2.814      3.593
REMARK INTER + INTRA:          -6.094
REMARK INTER:                  -5.773
REMARK INTRA:                  -0.321
REMARK UNBOUND:                -0.232
REMARK  Name = 379
REMARK  8 active torsions:
REMARK  status: ('A' for Active; 'I' for Inactive)
REMARK    1  A    between atoms: O_1  and  C_10
REMARK    2  A    between atoms: C_3  and  C_4
REMARK    3  A    between atoms: C_3  and  C_5
REMARK    4  A    between atoms: C_4  and  C_6
REMARK    5  A    between atoms: C_5  and  C_7
REMARK    6  A    between atoms: C_6  and  C_8
REMARK    7  A    between atoms: C_7  and  C_9
REMARK    8  A    between atoms: C_8  and  C_10
REMARK                            x       y       z     vdW  Elec       q    Type
REMARK                         _______ _______ _______ _____ _____    ______ ____
ROOT
ATOM      1  C   UNL     1      -1.713   6.667 -11.438  0.00  0.00    +0.000 C 
ATOM      2  H   UNL     1      -1.431   5.623 -11.622  0.00  0.00    +0.000 HD
ATOM      3  H   UNL     1      -1.045   7.041 -10.651  0.00  0.00    +0.000 HD
ENDROOT
BRANCH   1   4
ATOM      4  C   UNL     1      -1.474   7.477 -12.716  0.00  0.00    +0.000 C 
ATOM      5  H   UNL     1      -1.096   6.801 -13.495  0.00  0.00    +0.000 HD
ATOM      6  H   UNL     1      -2.441   7.852 -13.076  0.00  0.00    +0.000 HD
BRANCH   4   7
ATOM      7  C   UNL     1      -0.510   8.660 -12.586  0.00  0.00    +0.000 C 
ATOM      8  H   UNL     1       0.219   8.441 -11.795  0.00  0.00    +0.000 HD
ATOM      9  H   UNL     1       0.064   8.756 -13.515  0.00  0.00    +0.000 HD
BRANCH   7  10
ATOM     10  C   UNL     1      -1.210   9.983 -12.277  0.00  0.00    +0.000 C 
ATOM     11  H   UNL     1      -2.060  10.120 -12.954  0.00  0.00    +0.000 HD
ATOM     12  H   UNL     1      -0.507  10.812 -12.412  0.00  0.00    +0.000 HD
BRANCH  10  14
ATOM     13  O   UNL     1      -1.042   9.925  -9.848  0.00  0.00    +0.000 OA
ATOM     14  C   UNL     1      -1.726  10.028 -10.857  0.00  0.00    +0.000 C 
BRANCH  14  15
ATOM     15  O   UNL     1      -3.073  10.205 -10.824  0.00  0.00    +0.000 OA
ATOM     16  H   UNL     1      -3.433  10.105  -9.917  0.00  0.00    +0.000 HD
ENDBRANCH  14  15
ENDBRANCH  10  14
ENDBRANCH   7  10
ENDBRANCH   4   7
ENDBRANCH   1   4
BRANCH   1  17
ATOM     17  C   UNL     1      -3.159   6.725 -10.942  0.00  0.00    +0.000 C 
ATOM     18  H   UNL     1      -3.685   7.550 -11.438  0.00  0.00    +0.000 HD
ATOM     19  H   UNL     1      -3.676   5.798 -11.217  0.00  0.00    +0.000 HD
BRANCH  17  20
ATOM     20  C   UNL     1      -3.216   6.916  -9.425  0.00  0.00    +0.000 C 
ATOM     21  H   UNL     1      -2.410   6.347  -8.947  0.00  0.00    +0.000 HD
ATOM     22  H   UNL     1      -3.060   7.972  -9.177  0.00  0.00    +0.000 HD
BRANCH  20  23
ATOM     23  C   UNL     1      -4.550   6.459  -8.856  0.00  0.00    +0.000 C 
ATOM     24  H   UNL     1      -4.924   7.171  -8.113  0.00  0.00    +0.000 HD
ATOM     25  H   UNL     1      -4.441   5.485  -8.370  0.00  0.00    +0.000 HD
ATOM     26  H   UNL     1      -5.301   6.362  -9.648  0.00  0.00    +0.000 HD
ENDBRANCH  20  23
ENDBRANCH  17  20
ENDBRANCH   1  17
TORSDOF 8
ENDMDL
MODEL 7
REMARK VINA RESULT:    -4.124      3.525      5.048
REMARK INTER + INTRA:          -6.044
REMARK INTER:                  -5.593
REMARK INTRA:                  -0.451
REMARK UNBOUND:                -0.232
REMARK  Name = 379
REMARK  8 active torsions:
REMARK  status: ('A' for Active; 'I' for Inactive)
REMARK    1  A    between atoms: O_1  and  C_10
REMARK    2  A    between atoms: C_3  and  C_4
REMARK    3  A    between atoms: C_3  and  C_5
REMARK    4  A    between atoms: C_4  and  C_6
REMARK    5  A    between atoms: C_5  and  C_7
REMARK    6  A    between atoms: C_6  and  C_8
REMARK    7  A    between atoms: C_7  and  C_9
REMARK    8  A    between atoms: C_8  and  C_10
REMARK                            x       y       z     vdW  Elec       q    Type
REMARK                         _______ _______ _______ _____ _____    ______ ____
ROOT
ATOM      1  C   UNL     1      -2.717   9.593  -9.950  0.00  0.00    +0.000 C 
ATOM      2  H   UNL     1      -3.136   9.060 -10.813  0.00  0.00    +0.000 HD
ATOM      3  H   UNL     1      -3.321  10.498  -9.813  0.00  0.00    +0.000 HD
ENDROOT
BRANCH   1   4
ATOM      4  C   UNL     1      -2.859   8.710  -8.706  0.00  0.00    +0.000 C 
ATOM      5  H   UNL     1      -1.895   8.683  -8.182  0.00  0.00    +0.000 HD
ATOM      6  H   UNL     1      -3.570   9.189  -8.019  0.00  0.00    +0.000 HD
BRANCH   4   7
ATOM      7  C   UNL     1      -3.321   7.272  -8.958  0.00  0.00    +0.000 C 
ATOM      8  H   UNL     1      -2.731   6.593  -8.329  0.00  0.00    +0.000 HD
ATOM      9  H   UNL     1      -4.362   7.168  -8.630  0.00  0.00    +0.000 HD
BRANCH   7  10
ATOM     10  C   UNL     1      -3.199   6.841 -10.419  0.00  0.00    +0.000 C 
ATOM     11  H   UNL     1      -2.711   5.861 -10.478  0.00  0.00    +0.000 HD
ATOM     12  H   UNL     1      -2.600   7.573 -10.971  0.00  0.00    +0.000 HD
BRANCH  10  14
ATOM     13  O   UNL     1      -5.593   6.415 -10.537  0.00  0.00    +0.000 OA
ATOM     14  C   UNL     1      -4.550   6.735 -11.089  0.00  0.00    +0.000 C 
BRANCH  14  15
ATOM     15  O   UNL     1      -4.475   7.050 -12.409  0.00  0.00    +0.000 OA
ATOM     16  H   UNL     1      -3.680   7.588 -12.611  0.00  0.00    +0.000 HD
ENDBRANCH  14  15
ENDBRANCH  10  14
ENDBRANCH   7  10
ENDBRANCH   4   7
ENDBRANCH   1   4
BRANCH   1  17
ATOM     17  C   UNL     1      -1.271   9.991 -10.252  0.00  0.00    +0.000 C 
ATOM     18  H   UNL     1      -1.101  11.027  -9.930  0.00  0.00    +0.000 HD
ATOM     19  H   UNL     1      -0.589   9.357  -9.674  0.00  0.00    +0.000 HD
BRANCH  17  20
ATOM     20  C   UNL     1      -0.961   9.858 -11.744  0.00  0.00    +0.000 C 
ATOM     21  H   UNL     1      -0.336  10.696 -12.071  0.00  0.00    +0.000 HD
ATOM     22  H   UNL     1      -0.392   8.938 -11.925  0.00  0.00    +0.000 HD
BRANCH  20  23
ATOM     23  C   UNL     1      -2.233   9.831 -12.576  0.00  0.00    +0.000 C 
ATOM     24  H   UNL     1      -2.784   8.897 -12.423  0.00  0.00    +0.000 HD
ATOM     25  H   UNL     1      -1.991   9.912 -13.640  0.00  0.00    +0.000 HD
ATOM     26  H   UNL     1      -2.892  10.666 -12.313  0.00  0.00    +0.000 HD
ENDBRANCH  20  23
ENDBRANCH  17  20
ENDBRANCH   1  17
TORSDOF 8
ENDMDL
MODEL 8
REMARK VINA RESULT:    -4.098     19.599     21.424
REMARK INTER + INTRA:          -6.008
REMARK INTER:                  -5.697
REMARK INTRA:                  -0.311
REMARK UNBOUND:                -0.232
REMARK  Name = 379
REMARK  8 active torsions:
REMARK  status: ('A' for Active; 'I' for Inactive)
REMARK    1  A    between atoms: O_1  and  C_10
REMARK    2  A    between atoms: C_3  and  C_4
REMARK    3  A    between atoms: C_3  and  C_5
REMARK    4  A    between atoms: C_4  and  C_6
REMARK    5  A    between atoms: C_5  and  C_7
REMARK    6  A    between atoms: C_6  and  C_8
REMARK    7  A    between atoms: C_7  and  C_9
REMARK    8  A    between atoms: C_8  and  C_10
REMARK                            x       y       z     vdW  Elec       q    Type
REMARK                         _______ _______ _______ _____ _____    ______ ____
ROOT
ATOM      1  C   UNL     1      -8.779  11.501   5.063  0.00  0.00    +0.000 C 
ATOM      2  H   UNL     1      -9.084  10.614   4.493  0.00  0.00    +0.000 HD
ATOM      3  H   UNL     1      -9.328  12.352   4.642  0.00  0.00    +0.000 HD
ENDROOT
BRANCH   1   4
ATOM      4  C   UNL     1      -9.195  11.317   6.525  0.00  0.00    +0.000 C 
ATOM      5  H   UNL     1      -8.806  12.162   7.110  0.00  0.00    +0.000 HD
ATOM      6  H   UNL     1     -10.289  11.378   6.586  0.00  0.00    +0.000 HD
BRANCH   4   7
ATOM      7  C   UNL     1      -8.742  10.013   7.189  0.00  0.00    +0.000 C 
ATOM      8  H   UNL     1      -9.591   9.318   7.225  0.00  0.00    +0.000 HD
ATOM      9  H   UNL     1      -7.982   9.537   6.558  0.00  0.00    +0.000 HD
BRANCH   7  10
ATOM     10  C   UNL     1      -8.188  10.209   8.600  0.00  0.00    +0.000 C 
ATOM     11  H   UNL     1      -8.803  10.937   9.142  0.00  0.00    +0.000 HD
ATOM     12  H   UNL     1      -7.159  10.580   8.544  0.00  0.00    +0.000 HD
BRANCH  10  14
ATOM     13  O   UNL     1      -8.663   8.762  10.499  0.00  0.00    +0.000 OA
ATOM     14  C   UNL     1      -8.182   8.918   9.386  0.00  0.00    +0.000 C 
BRANCH  14  15
ATOM     15  O   UNL     1      -7.569   7.920   8.697  0.00  0.00    +0.000 OA
ATOM     16  H   UNL     1      -6.592   7.973   8.769  0.00  0.00    +0.000 HD
ENDBRANCH  14  15
ENDBRANCH  10  14
ENDBRANCH   7  10
ENDBRANCH   4   7
ENDBRANCH   1   4
BRANCH   1  17
ATOM     17  C   UNL     1      -7.277  11.730   4.881  0.00  0.00    +0.000 C 
ATOM     18  H   UNL     1      -6.726  11.201   5.669  0.00  0.00    +0.000 HD
ATOM     19  H   UNL     1      -6.957  11.305   3.922  0.00  0.00    +0.000 HD
BRANCH  17  20
ATOM     20  C   UNL     1      -6.935  13.220   4.924  0.00  0.00    +0.000 C 
ATOM     21  H   UNL     1      -6.227  13.463   4.124  0.00  0.00    +0.000 HD
ATOM     22  H   UNL     1      -7.840  13.814   4.749  0.00  0.00    +0.000 HD
BRANCH  20  23
ATOM     23  C   UNL     1      -6.328  13.613   6.261  0.00  0.00    +0.000 C 
ATOM     24  H   UNL     1      -5.520  12.930   6.542  0.00  0.00    +0.000 HD
ATOM     25  H   UNL     1      -7.089  13.581   7.047  0.00  0.00    +0.000 HD
ATOM     26  H   UNL     1      -5.922  14.629   6.224  0.00  0.00    +0.000 HD
ENDBRANCH  20  23
ENDBRANCH  17  20
ENDBRANCH   1  17
TORSDOF 8
ENDMDL
MODEL 9
REMARK VINA RESULT:    -4.007      8.767      9.425
REMARK INTER + INTRA:          -5.879
REMARK INTER:                  -5.646
REMARK INTRA:                  -0.232
REMARK UNBOUND:                -0.232
REMARK  Name = 379
REMARK  8 active torsions:
REMARK  status: ('A' for Active; 'I' for Inactive)
REMARK    1  A    between atoms: O_1  and  C_10
REMARK    2  A    between atoms: C_3  and  C_4
REMARK    3  A    between atoms: C_3  and  C_5
REMARK    4  A    between atoms: C_4  and  C_6
REMARK    5  A    between atoms: C_5  and  C_7
REMARK    6  A    between atoms: C_6  and  C_8
REMARK    7  A    between atoms: C_7  and  C_9
REMARK    8  A    between atoms: C_8  and  C_10
REMARK                            x       y       z     vdW  Elec       q    Type
REMARK                         _______ _______ _______ _____ _____    ______ ____
ROOT
ATOM      1  C   UNL     1      -2.444  -0.362 -12.021  0.00  0.00    +0.000 C 
ATOM      2  H   UNL     1      -3.093   0.492 -12.251  0.00  0.00    +0.000 HD
ATOM      3  H   UNL     1      -2.997  -1.266 -12.309  0.00  0.00    +0.000 HD
ENDROOT
BRANCH   1   4
ATOM      4  C   UNL     1      -1.176  -0.265 -12.875  0.00  0.00    +0.000 C 
ATOM      5  H   UNL     1      -1.053  -1.205 -13.430  0.00  0.00    +0.000 HD
ATOM      6  H   UNL     1      -1.323   0.520 -13.628  0.00  0.00    +0.000 HD
BRANCH   4   7
ATOM      7  C   UNL     1       0.120   0.027 -12.113  0.00  0.00    +0.000 C 
ATOM      8  H   UNL     1      -0.131   0.404 -11.114  0.00  0.00    +0.000 HD
ATOM      9  H   UNL     1       0.663  -0.914 -11.960  0.00  0.00    +0.000 HD
BRANCH   7  10
ATOM     10  C   UNL     1       1.027   1.033 -12.820  0.00  0.00    +0.000 C 
ATOM     11  H   UNL     1       1.355   1.800 -12.110  0.00  0.00    +0.000 HD
ATOM     12  H   UNL     1       0.479   1.512 -13.638  0.00  0.00    +0.000 HD
BRANCH  10  14
ATOM     13  O   UNL     1       2.929   0.806 -14.324  0.00  0.00    +0.000 OA
ATOM     14  C   UNL     1       2.257   0.371 -13.400  0.00  0.00    +0.000 C 
BRANCH  14  15
ATOM     15  O   UNL     1       2.543  -0.792 -12.758  0.00  0.00    +0.000 OA
ATOM     16  H   UNL     1       2.400  -1.572 -13.336  0.00  0.00    +0.000 HD
ENDBRANCH  14  15
ENDBRANCH  10  14
ENDBRANCH   7  10
ENDBRANCH   4   7
ENDBRANCH   1   4
BRANCH   1  17
ATOM     17  C   UNL     1      -2.165  -0.398 -10.517  0.00  0.00    +0.000 C 
ATOM     18  H   UNL     1      -1.221  -0.925 -10.331  0.00  0.00    +0.000 HD
ATOM     19  H   UNL     1      -2.044   0.625 -10.144  0.00  0.00    +0.000 HD
BRANCH  17  20
ATOM     20  C   UNL     1      -3.300  -1.092  -9.761  0.00  0.00    +0.000 C 
ATOM     21  H   UNL     1      -3.383  -2.135 -10.088  0.00  0.00    +0.000 HD
ATOM     22  H   UNL     1      -3.079  -1.104  -8.687  0.00  0.00    +0.000 HD
BRANCH  20  23
ATOM     23  C   UNL     1      -4.630  -0.393  -9.990  0.00  0.00    +0.000 C 
ATOM     24  H   UNL     1      -4.934   0.174  -9.104  0.00  0.00    +0.000 HD
ATOM     25  H   UNL     1      -5.412  -1.127 -10.209  0.00  0.00    +0.000 HD
ATOM     26  H   UNL     1      -4.569   0.300 -10.837  0.00  0.00    +0.000 HD
ENDBRANCH  20  23
ENDBRANCH  17  20
ENDBRANCH   1  17
TORSDOF 8
ENDMDL
MODEL 10
REMARK VINA RESULT:    -3.954     15.744     16.905
REMARK INTER + INTRA:          -5.804
REMARK INTER:                  -5.432
REMARK INTRA:                  -0.373
REMARK UNBOUND:                -0.232
REMARK  Name = 379
REMARK  8 active torsions:
REMARK  status: ('A' for Active; 'I' for Inactive)
REMARK    1  A    between atoms: O_1  and  C_10
REMARK    2  A    between atoms: C_3  and  C_4
REMARK    3  A    between atoms: C_3  and  C_5
REMARK    4  A    between atoms: C_4  and  C_6
REMARK    5  A    between atoms: C_5  and  C_7
REMARK    6  A    between atoms: C_6  and  C_8
REMARK    7  A    between atoms: C_7  and  C_9
REMARK    8  A    between atoms: C_8  and  C_10
REMARK                            x       y       z     vdW  Elec       q    Type
REMARK                         _______ _______ _______ _____ _____    ______ ____
ROOT
ATOM      1  C   UNL     1       5.296   8.070   4.967  0.00  0.00    +0.000 C 
ATOM      2  H   UNL     1       5.173   8.793   5.783  0.00  0.00    +0.000 HD
ATOM      3  H   UNL     1       4.749   7.165   5.262  0.00  0.00    +0.000 HD
ENDROOT
BRANCH   1   4
ATOM      4  C   UNL     1       4.657   8.641   3.698  0.00  0.00    +0.000 C 
ATOM      5  H   UNL     1       3.623   8.277   3.630  0.00  0.00    +0.000 HD
ATOM      6  H   UNL     1       4.593   9.732   3.801  0.00  0.00    +0.000 HD
BRANCH   4   7
ATOM      7  C   UNL     1       5.377   8.319   2.385  0.00  0.00    +0.000 C 
ATOM      8  H   UNL     1       6.425   8.078   2.603  0.00  0.00    +0.000 HD
ATOM      9  H   UNL     1       4.938   7.413   1.951  0.00  0.00    +0.000 HD
BRANCH   7  10
ATOM     10  C   UNL     1       5.320   9.455   1.365  0.00  0.00    +0.000 C 
ATOM     11  H   UNL     1       5.945   9.209   0.500  0.00  0.00    +0.000 HD
ATOM     12  H   UNL     1       5.689  10.379   1.822  0.00  0.00    +0.000 HD
BRANCH  10  14
ATOM     13  O   UNL     1       3.207  10.651   1.184  0.00  0.00    +0.000 OA
ATOM     14  C   UNL     1       3.911   9.701   0.874  0.00  0.00    +0.000 C 
BRANCH  14  15
ATOM     15  O   UNL     1       3.505   8.723   0.022  0.00  0.00    +0.000 OA
ATOM     16  H   UNL     1       3.480   9.037  -0.908  0.00  0.00    +0.000 HD
ENDBRANCH  14  15
ENDBRANCH  10  14
ENDBRANCH   7  10
ENDBRANCH   4   7
ENDBRANCH   1   4
BRANCH   1  17
ATOM     17  C   UNL     1       6.779   7.733   4.804  0.00  0.00    +0.000 C 
ATOM     18  H   UNL     1       6.935   6.662   4.985  0.00  0.00    +0.000 HD
ATOM     19  H   UNL     1       7.088   7.935   3.772  0.00  0.00    +0.000 HD
BRANCH  17  20
ATOM     20  C   UNL     1       7.640   8.549   5.770  0.00  0.00    +0.000 C 
ATOM     21  H   UNL     1       7.003   9.040   6.514  0.00  0.00    +0.000 HD
ATOM     22  H   UNL     1       8.323   7.885   6.313  0.00  0.00    +0.000 HD
BRANCH  20  23
ATOM     23  C   UNL     1       8.450   9.607   5.035  0.00  0.00    +0.000 C 
ATOM     24  H   UNL     1       9.478   9.269   4.868  0.00  0.00    +0.000 HD
ATOM     25  H   UNL     1       8.486  10.530   5.621  0.00  0.00    +0.000 HD
ATOM     26  H   UNL     1       8.002   9.838   4.063  0.00  0.00    +0.000 HD
ENDBRANCH  20  23
ENDBRANCH  17  20
ENDBRANCH   1  17
TORSDOF 8
ENDMDL
