MODEL 1
REMARK VINA RESULT:    -4.930      0.000      0.000
REMARK INTER + INTRA:          -5.700
REMARK INTER:                  -5.654
REMARK INTRA:                  -0.046
REMARK UNBOUND:                -0.049
REMARK  Name = 31244
REMARK  3 active torsions:
REMARK  status: ('A' for Active; 'I' for Inactive)
REMARK    1  A    between atoms: O_1  and  C_3
REMARK    2  A    between atoms: O_1  and  C_10
REMARK    3  A    between atoms: C_4  and  C_9
REMARK                            x       y       z     vdW  Elec       q    Type
REMARK                         _______ _______ _______ _____ _____    ______ ____
ROOT
ATOM      1  C   UNL     1      -3.349   7.036  -9.127  0.00  0.00    +0.000 A 
ATOM      2  C   UNL     1      -1.891   9.072 -10.355  0.00  0.00    +0.000 A 
ATOM      3  C   UNL     1      -3.183   8.261  -8.482  0.00  0.00    +0.000 A 
ATOM      4  C   UNL     1      -2.786   6.828 -10.385  0.00  0.00    +0.000 A 
ATOM      5  C   UNL     1      -2.454   9.279  -9.096  0.00  0.00    +0.000 A 
ATOM      6  C   UNL     1      -2.057   7.846 -11.000  0.00  0.00    +0.000 A 
ATOM      7  H   UNL     1      -3.620   8.428  -7.501  0.00  0.00    +0.000 HD
ATOM      8  H   UNL     1      -2.876   5.902 -10.942  0.00  0.00    +0.000 HD
ATOM      9  H   UNL     1      -2.334  10.229  -8.581  0.00  0.00    +0.000 HD
ATOM     10  H   UNL     1      -1.626   7.664 -11.981  0.00  0.00    +0.000 HD
ENDROOT
BRANCH   2  12
ATOM     11  O   UNL     1      -0.795  10.101 -12.183  0.00  0.00    +0.000 OA
ATOM     12  C   UNL     1      -1.131  10.134 -10.995  0.00  0.00    +0.000 C 
ATOM     13  H   UNL     1      -0.857  10.997 -10.364  0.00  0.00    +0.000 HD
ENDBRANCH   2  12
BRANCH   1  14
ATOM     14  O   UNL     1      -4.061   6.042  -8.528  0.00  0.00    +0.000 OA
BRANCH  14  15
ATOM     15  C   UNL     1      -5.458   5.984  -8.807  0.00  0.00    +0.000 C 
ATOM     16  H   UNL     1      -5.954   6.931  -8.574  0.00  0.00    +0.000 HD
ATOM     17  H   UNL     1      -5.933   5.132  -8.310  0.00  0.00    +0.000 HD
ATOM     18  H   UNL     1      -5.565   5.824  -9.886  0.00  0.00    +0.000 HD
ENDBRANCH  14  15
ENDBRANCH   1  14
TORSDOF 3
ENDMDL
MODEL 2
REMARK VINA RESULT:    -4.924      1.076      4.321
REMARK INTER + INTRA:          -5.693
REMARK INTER:                  -5.638
REMARK INTRA:                  -0.055
REMARK UNBOUND:                -0.049
REMARK  Name = 31244
REMARK  3 active torsions:
REMARK  status: ('A' for Active; 'I' for Inactive)
REMARK    1  A    between atoms: O_1  and  C_3
REMARK    2  A    between atoms: O_1  and  C_10
REMARK    3  A    between atoms: C_4  and  C_9
REMARK                            x       y       z     vdW  Elec       q    Type
REMARK                         _______ _______ _______ _____ _____    ______ ____
ROOT
ATOM      1  C   UNL     1      -1.588   8.809 -10.924  0.00  0.00    +0.000 A 
ATOM      2  C   UNL     1      -3.369   7.252  -9.446  0.00  0.00    +0.000 A 
ATOM      3  C   UNL     1      -2.105   9.292  -9.722  0.00  0.00    +0.000 A 
ATOM      4  C   UNL     1      -1.961   7.548 -11.388  0.00  0.00    +0.000 A 
ATOM      5  C   UNL     1      -2.995   8.514  -8.983  0.00  0.00    +0.000 A 
ATOM      6  C   UNL     1      -2.852   6.769 -10.649  0.00  0.00    +0.000 A 
ATOM      7  H   UNL     1      -1.817  10.274  -9.357  0.00  0.00    +0.000 HD
ATOM      8  H   UNL     1      -1.598   7.112 -12.312  0.00  0.00    +0.000 HD
ATOM      9  H   UNL     1      -3.390   8.904  -8.048  0.00  0.00    +0.000 HD
ATOM     10  H   UNL     1      -3.130   5.789 -11.027  0.00  0.00    +0.000 HD
ENDROOT
BRANCH   2  12
ATOM     11  O   UNL     1      -5.423   6.134  -9.081  0.00  0.00    +0.000 OA
ATOM     12  C   UNL     1      -4.298   6.440  -8.676  0.00  0.00    +0.000 C 
ATOM     13  H   UNL     1      -3.950   6.096  -7.686  0.00  0.00    +0.000 HD
ENDBRANCH   2  12
BRANCH   1  14
ATOM     14  O   UNL     1      -0.719   9.569 -11.646  0.00  0.00    +0.000 OA
BRANCH  14  15
ATOM     15  C   UNL     1      -0.222   9.011 -12.861  0.00  0.00    +0.000 C 
ATOM     16  H   UNL     1      -1.021   8.874 -13.597  0.00  0.00    +0.000 HD
ATOM     17  H   UNL     1       0.337   8.088 -12.681  0.00  0.00    +0.000 HD
ATOM     18  H   UNL     1       0.482   9.734 -13.285  0.00  0.00    +0.000 HD
ENDBRANCH  14  15
ENDBRANCH   1  14
TORSDOF 3
ENDMDL
MODEL 3
REMARK VINA RESULT:    -4.443      2.171      4.747
REMARK INTER + INTRA:          -5.141
REMARK INTER:                  -5.086
REMARK INTRA:                  -0.055
REMARK UNBOUND:                -0.049
REMARK  Name = 31244
REMARK  3 active torsions:
REMARK  status: ('A' for Active; 'I' for Inactive)
REMARK    1  A    between atoms: O_1  and  C_3
REMARK    2  A    between atoms: O_1  and  C_10
REMARK    3  A    between atoms: C_4  and  C_9
REMARK                            x       y       z     vdW  Elec       q    Type
REMARK                         _______ _______ _______ _____ _____    ______ ____
ROOT
ATOM      1  C   UNL     1      -2.968   7.085 -10.616  0.00  0.00    +0.000 A 
ATOM      2  C   UNL     1      -5.469   6.312  -9.653  0.00  0.00    +0.000 A 
ATOM      3  C   UNL     1      -3.141   6.821  -9.257  0.00  0.00    +0.000 A 
ATOM      4  C   UNL     1      -4.044   6.962 -11.493  0.00  0.00    +0.000 A 
ATOM      5  C   UNL     1      -4.392   6.435  -8.776  0.00  0.00    +0.000 A 
ATOM      6  C   UNL     1      -5.296   6.575 -11.012  0.00  0.00    +0.000 A 
ATOM      7  H   UNL     1      -2.306   6.916  -8.569  0.00  0.00    +0.000 HD
ATOM      8  H   UNL     1      -3.980   7.151 -12.559  0.00  0.00    +0.000 HD
ATOM      9  H   UNL     1      -4.511   6.233  -7.714  0.00  0.00    +0.000 HD
ATOM     10  H   UNL     1      -6.122   6.486 -11.713  0.00  0.00    +0.000 HD
ENDROOT
BRANCH   2  12
ATOM     11  O   UNL     1      -7.052   5.872  -7.949  0.00  0.00    +0.000 OA
ATOM     12  C   UNL     1      -6.773   5.909  -9.151  0.00  0.00    +0.000 C 
ATOM     13  H   UNL     1      -7.529   5.629  -9.907  0.00  0.00    +0.000 HD
ENDBRANCH   2  12
BRANCH   1  14
ATOM     14  O   UNL     1      -1.747   7.462 -11.086  0.00  0.00    +0.000 OA
BRANCH  14  15
ATOM     15  C   UNL     1      -1.391   7.023 -12.395  0.00  0.00    +0.000 C 
ATOM     16  H   UNL     1      -0.717   6.161 -12.361  0.00  0.00    +0.000 HD
ATOM     17  H   UNL     1      -0.987   7.842 -12.998  0.00  0.00    +0.000 HD
ATOM     18  H   UNL     1      -2.312   6.690 -12.886  0.00  0.00    +0.000 HD
ENDBRANCH  14  15
ENDBRANCH   1  14
TORSDOF 3
ENDMDL
MODEL 4
REMARK VINA RESULT:    -4.382     25.151     26.204
REMARK INTER + INTRA:          -5.071
REMARK INTER:                  -5.018
REMARK INTRA:                  -0.054
REMARK UNBOUND:                -0.049
REMARK  Name = 31244
REMARK  3 active torsions:
REMARK  status: ('A' for Active; 'I' for Inactive)
REMARK    1  A    between atoms: O_1  and  C_3
REMARK    2  A    between atoms: O_1  and  C_10
REMARK    3  A    between atoms: C_4  and  C_9
REMARK                            x       y       z     vdW  Elec       q    Type
REMARK                         _______ _______ _______ _____ _____    ______ ____
ROOT
ATOM      1  C   UNL     1     -20.837  -3.142   4.288  0.00  0.00    +0.000 A 
ATOM      2  C   UNL     1     -20.812  -1.428   6.489  0.00  0.00    +0.000 A 
ATOM      3  C   UNL     1     -20.897  -1.762   4.098  0.00  0.00    +0.000 A 
ATOM      4  C   UNL     1     -20.765  -3.666   5.578  0.00  0.00    +0.000 A 
ATOM      5  C   UNL     1     -20.884  -0.905   5.198  0.00  0.00    +0.000 A 
ATOM      6  C   UNL     1     -20.753  -2.810   6.680  0.00  0.00    +0.000 A 
ATOM      7  H   UNL     1     -20.953  -1.349   3.095  0.00  0.00    +0.000 HD
ATOM      8  H   UNL     1     -20.717  -4.727   5.798  0.00  0.00    +0.000 HD
ATOM      9  H   UNL     1     -20.931   0.169   5.034  0.00  0.00    +0.000 HD
ATOM     10  H   UNL     1     -20.696  -3.238   7.676  0.00  0.00    +0.000 HD
ENDROOT
BRANCH   2  12
ATOM     11  O   UNL     1     -21.715  -0.486   8.464  0.00  0.00    +0.000 OA
ATOM     12  C   UNL     1     -20.799  -0.536   7.637  0.00  0.00    +0.000 C 
ATOM     13  H   UNL     1     -19.914   0.115   7.747  0.00  0.00    +0.000 HD
ENDBRANCH   2  12
BRANCH   1  14
ATOM     14  O   UNL     1     -20.849  -3.979   3.214  0.00  0.00    +0.000 OA
BRANCH  14  15
ATOM     15  C   UNL     1     -20.320  -5.289   3.406  0.00  0.00    +0.000 C 
ATOM     16  H   UNL     1     -20.390  -5.889   2.492  0.00  0.00    +0.000 HD
ATOM     17  H   UNL     1     -20.779  -5.787   4.265  0.00  0.00    +0.000 HD
ATOM     18  H   UNL     1     -19.254  -5.177   3.633  0.00  0.00    +0.000 HD
ENDBRANCH  14  15
ENDBRANCH   1  14
TORSDOF 3
ENDMDL
MODEL 5
REMARK VINA RESULT:    -4.340      2.111      2.586
REMARK INTER + INTRA:          -5.023
REMARK INTER:                  -4.976
REMARK INTRA:                  -0.047
REMARK UNBOUND:                -0.049
REMARK  Name = 31244
REMARK  3 active torsions:
REMARK  status: ('A' for Active; 'I' for Inactive)
REMARK    1  A    between atoms: O_1  and  C_3
REMARK    2  A    between atoms: O_1  and  C_10
REMARK    3  A    between atoms: C_4  and  C_9
REMARK                            x       y       z     vdW  Elec       q    Type
REMARK                         _______ _______ _______ _____ _____    ______ ____
ROOT
ATOM      1  C   UNL     1      -5.311   6.301  -9.265  0.00  0.00    +0.000 A 
ATOM      2  C   UNL     1      -3.302   6.882 -11.110  0.00  0.00    +0.000 A 
ATOM      3  C   UNL     1      -4.001   6.501  -8.830  0.00  0.00    +0.000 A 
ATOM      4  C   UNL     1      -5.617   6.391 -10.622  0.00  0.00    +0.000 A 
ATOM      5  C   UNL     1      -2.997   6.791  -9.752  0.00  0.00    +0.000 A 
ATOM      6  C   UNL     1      -4.612   6.681 -11.546  0.00  0.00    +0.000 A 
ATOM      7  H   UNL     1      -3.758   6.432  -7.773  0.00  0.00    +0.000 HD
ATOM      8  H   UNL     1      -6.612   6.247 -11.028  0.00  0.00    +0.000 HD
ATOM      9  H   UNL     1      -1.980   6.945  -9.397  0.00  0.00    +0.000 HD
ATOM     10  H   UNL     1      -4.871   6.747 -12.599  0.00  0.00    +0.000 HD
ENDROOT
BRANCH   2  12
ATOM     11  O   UNL     1      -1.066   7.304 -11.761  0.00  0.00    +0.000 OA
ATOM     12  C   UNL     1      -2.254   7.185 -12.072  0.00  0.00    +0.000 C 
ATOM     13  H   UNL     1      -2.569   7.306 -13.124  0.00  0.00    +0.000 HD
ENDBRANCH   2  12
BRANCH   1  14
ATOM     14  O   UNL     1      -6.292   6.017  -8.364  0.00  0.00    +0.000 OA
BRANCH  14  15
ATOM     15  C   UNL     1      -6.746   4.666  -8.302  0.00  0.00    +0.000 C 
ATOM     16  H   UNL     1      -7.837   4.606  -8.356  0.00  0.00    +0.000 HD
ATOM     17  H   UNL     1      -6.344   4.148  -7.425  0.00  0.00    +0.000 HD
ATOM     18  H   UNL     1      -6.353   4.152  -9.185  0.00  0.00    +0.000 HD
ENDBRANCH  14  15
ENDBRANCH   1  14
TORSDOF 3
ENDMDL
MODEL 6
REMARK VINA RESULT:    -4.255     25.046     26.137
REMARK INTER + INTRA:          -4.926
REMARK INTER:                  -4.882
REMARK INTRA:                  -0.044
REMARK UNBOUND:                -0.049
REMARK  Name = 31244
REMARK  3 active torsions:
REMARK  status: ('A' for Active; 'I' for Inactive)
REMARK    1  A    between atoms: O_1  and  C_3
REMARK    2  A    between atoms: O_1  and  C_10
REMARK    3  A    between atoms: C_4  and  C_9
REMARK                            x       y       z     vdW  Elec       q    Type
REMARK                         _______ _______ _______ _____ _____    ______ ____
ROOT
ATOM      1  C   UNL     1     -20.767  -1.478   6.593  0.00  0.00    +0.000 A 
ATOM      2  C   UNL     1     -20.875  -2.978   4.244  0.00  0.00    +0.000 A 
ATOM      3  C   UNL     1     -20.794  -2.871   6.656  0.00  0.00    +0.000 A 
ATOM      4  C   UNL     1     -20.794  -0.835   5.357  0.00  0.00    +0.000 A 
ATOM      5  C   UNL     1     -20.848  -3.621   5.482  0.00  0.00    +0.000 A 
ATOM      6  C   UNL     1     -20.848  -1.584   4.181  0.00  0.00    +0.000 A 
ATOM      7  H   UNL     1     -20.773  -3.377   7.617  0.00  0.00    +0.000 HD
ATOM      8  H   UNL     1     -20.775   0.243   5.235  0.00  0.00    +0.000 HD
ATOM      9  H   UNL     1     -20.869  -4.706   5.546  0.00  0.00    +0.000 HD
ATOM     10  H   UNL     1     -20.868  -1.064   3.228  0.00  0.00    +0.000 HD
ENDROOT
BRANCH   2  12
ATOM     11  O   UNL     1     -20.216  -4.744   2.812  0.00  0.00    +0.000 OA
ATOM     12  C   UNL     1     -20.932  -3.760   3.019  0.00  0.00    +0.000 C 
ATOM     13  H   UNL     1     -21.661  -3.433   2.257  0.00  0.00    +0.000 HD
ENDBRANCH   2  12
BRANCH   1  14
ATOM     14  O   UNL     1     -20.714  -0.746   7.739  0.00  0.00    +0.000 OA
BRANCH  14  15
ATOM     15  C   UNL     1     -21.922  -0.620   8.487  0.00  0.00    +0.000 C 
ATOM     16  H   UNL     1     -22.025   0.380   8.919  0.00  0.00    +0.000 HD
ATOM     17  H   UNL     1     -22.012  -1.409   9.241  0.00  0.00    +0.000 HD
ATOM     18  H   UNL     1     -22.751  -0.753   7.785  0.00  0.00    +0.000 HD
ENDBRANCH  14  15
ENDBRANCH   1  14
TORSDOF 3
ENDMDL
MODEL 7
REMARK VINA RESULT:    -4.218     16.112     17.800
REMARK INTER + INTRA:          -4.884
REMARK INTER:                  -4.839
REMARK INTRA:                  -0.045
REMARK UNBOUND:                -0.049
REMARK  Name = 31244
REMARK  3 active torsions:
REMARK  status: ('A' for Active; 'I' for Inactive)
REMARK    1  A    between atoms: O_1  and  C_3
REMARK    2  A    between atoms: O_1  and  C_10
REMARK    3  A    between atoms: C_4  and  C_9
REMARK                            x       y       z     vdW  Elec       q    Type
REMARK                         _______ _______ _______ _____ _____    ______ ____
ROOT
ATOM      1  C   UNL     1      -6.796  13.100   5.557  0.00  0.00    +0.000 A 
ATOM      2  C   UNL     1      -8.332  11.015   6.593  0.00  0.00    +0.000 A 
ATOM      3  C   UNL     1      -7.137  13.090   6.910  0.00  0.00    +0.000 A 
ATOM      4  C   UNL     1      -7.223  12.068   4.722  0.00  0.00    +0.000 A 
ATOM      5  C   UNL     1      -7.905  12.047   7.427  0.00  0.00    +0.000 A 
ATOM      6  C   UNL     1      -7.991  11.025   5.240  0.00  0.00    +0.000 A 
ATOM      7  H   UNL     1      -6.807  13.892   7.564  0.00  0.00    +0.000 HD
ATOM      8  H   UNL     1      -6.994  12.014   3.664  0.00  0.00    +0.000 HD
ATOM      9  H   UNL     1      -8.163  12.053   8.483  0.00  0.00    +0.000 HD
ATOM     10  H   UNL     1      -8.313  10.230   4.572  0.00  0.00    +0.000 HD
ENDROOT
BRANCH   2  12
ATOM     11  O   UNL     1      -8.711   9.133   7.978  0.00  0.00    +0.000 OA
ATOM     12  C   UNL     1      -9.133   9.927   7.132  0.00  0.00    +0.000 C 
ATOM     13  H   UNL     1     -10.164   9.834   6.748  0.00  0.00    +0.000 HD
ENDBRANCH   2  12
BRANCH   1  14
ATOM     14  O   UNL     1      -6.046  14.118   5.052  0.00  0.00    +0.000 OA
BRANCH  14  15
ATOM     15  C   UNL     1      -6.600  15.430   5.122  0.00  0.00    +0.000 C 
ATOM     16  H   UNL     1      -5.980  16.096   5.730  0.00  0.00    +0.000 HD
ATOM     17  H   UNL     1      -7.641  15.410   5.459  0.00  0.00    +0.000 HD
ATOM     18  H   UNL     1      -6.602  15.835   4.104  0.00  0.00    +0.000 HD
ENDBRANCH  14  15
ENDBRANCH   1  14
TORSDOF 3
ENDMDL
MODEL 8
REMARK VINA RESULT:    -4.108     30.832     33.338
REMARK INTER + INTRA:          -4.757
REMARK INTER:                  -4.707
REMARK INTRA:                  -0.050
REMARK UNBOUND:                -0.049
REMARK  Name = 31244
REMARK  3 active torsions:
REMARK  status: ('A' for Active; 'I' for Inactive)
REMARK    1  A    between atoms: O_1  and  C_3
REMARK    2  A    between atoms: O_1  and  C_10
REMARK    3  A    between atoms: C_4  and  C_9
REMARK                            x       y       z     vdW  Elec       q    Type
REMARK                         _______ _______ _______ _____ _____    ______ ____
ROOT
ATOM      1  C   UNL     1      -9.852 -12.292  17.265  0.00  0.00    +0.000 A 
ATOM      2  C   UNL     1      -9.613 -10.460  15.175  0.00  0.00    +0.000 A 
ATOM      3  C   UNL     1      -8.707 -12.288  16.467  0.00  0.00    +0.000 A 
ATOM      4  C   UNL     1     -10.877 -11.381  17.017  0.00  0.00    +0.000 A 
ATOM      5  C   UNL     1      -8.588 -11.373  15.423  0.00  0.00    +0.000 A 
ATOM      6  C   UNL     1     -10.759 -10.464  15.972  0.00  0.00    +0.000 A 
ATOM      7  H   UNL     1      -7.905 -12.997  16.656  0.00  0.00    +0.000 HD
ATOM      8  H   UNL     1     -11.792 -11.329  17.597  0.00  0.00    +0.000 HD
ATOM      9  H   UNL     1      -7.690 -11.382  14.810  0.00  0.00    +0.000 HD
ATOM     10  H   UNL     1     -11.569  -9.762  15.796  0.00  0.00    +0.000 HD
ENDROOT
BRANCH   2  12
ATOM     11  O   UNL     1      -9.072  -9.810  12.964  0.00  0.00    +0.000 OA
ATOM     12  C   UNL     1      -9.490  -9.505  14.085  0.00  0.00    +0.000 C 
ATOM     13  H   UNL     1      -9.793  -8.466  14.302  0.00  0.00    +0.000 HD
ENDBRANCH   2  12
BRANCH   1  14
ATOM     14  O   UNL     1      -9.968 -13.186  18.284  0.00  0.00    +0.000 OA
BRANCH  14  15
ATOM     15  C   UNL     1     -10.418 -12.684  19.541  0.00  0.00    +0.000 C 
ATOM     16  H   UNL     1     -10.677 -13.494  20.229  0.00  0.00    +0.000 HD
ATOM     17  H   UNL     1     -11.236 -11.967  19.418  0.00  0.00    +0.000 HD
ATOM     18  H   UNL     1      -9.580 -12.139  19.989  0.00  0.00    +0.000 HD
ENDBRANCH  14  15
ENDBRANCH   1  14
TORSDOF 3
ENDMDL
MODEL 9
REMARK VINA RESULT:    -4.002     23.072     25.508
REMARK INTER + INTRA:          -4.636
REMARK INTER:                  -4.587
REMARK INTRA:                  -0.049
REMARK UNBOUND:                -0.049
REMARK  Name = 31244
REMARK  3 active torsions:
REMARK  status: ('A' for Active; 'I' for Inactive)
REMARK    1  A    between atoms: O_1  and  C_3
REMARK    2  A    between atoms: O_1  and  C_10
REMARK    3  A    between atoms: C_4  and  C_9
REMARK                            x       y       z     vdW  Elec       q    Type
REMARK                         _______ _______ _______ _____ _____    ______ ____
ROOT
ATOM      1  C   UNL     1     -19.436  -4.582   2.707  0.00  0.00    +0.000 A 
ATOM      2  C   UNL     1     -20.805  -3.684   4.966  0.00  0.00    +0.000 A 
ATOM      3  C   UNL     1     -19.081  -5.052   3.972  0.00  0.00    +0.000 A 
ATOM      4  C   UNL     1     -20.475  -3.663   2.572  0.00  0.00    +0.000 A 
ATOM      5  C   UNL     1     -19.765  -4.603   5.100  0.00  0.00    +0.000 A 
ATOM      6  C   UNL     1     -21.160  -3.213   3.701  0.00  0.00    +0.000 A 
ATOM      7  H   UNL     1     -18.271  -5.769   4.083  0.00  0.00    +0.000 HD
ATOM      8  H   UNL     1     -20.802  -3.257   1.621  0.00  0.00    +0.000 HD
ATOM      9  H   UNL     1     -19.477  -4.979   6.079  0.00  0.00    +0.000 HD
ATOM     10  H   UNL     1     -21.967  -2.496   3.573  0.00  0.00    +0.000 HD
ENDROOT
BRANCH   2  12
ATOM     11  O   UNL     1     -20.953  -2.734   7.128  0.00  0.00    +0.000 OA
ATOM     12  C   UNL     1     -21.519  -3.214   6.142  0.00  0.00    +0.000 C 
ATOM     13  H   UNL     1     -22.619  -3.305   6.122  0.00  0.00    +0.000 HD
ENDBRANCH   2  12
BRANCH   1  14
ATOM     14  O   UNL     1     -18.768  -5.021   1.605  0.00  0.00    +0.000 OA
BRANCH  14  15
ATOM     15  C   UNL     1     -17.343  -5.009   1.662  0.00  0.00    +0.000 C 
ATOM     16  H   UNL     1     -16.961  -5.783   2.336  0.00  0.00    +0.000 HD
ATOM     17  H   UNL     1     -16.958  -4.015   1.911  0.00  0.00    +0.000 HD
ATOM     18  H   UNL     1     -16.978  -5.251   0.658  0.00  0.00    +0.000 HD
ENDBRANCH  14  15
ENDBRANCH   1  14
TORSDOF 3
ENDMDL
MODEL 10
REMARK VINA RESULT:    -3.993      8.410      9.389
REMARK INTER + INTRA:          -4.625
REMARK INTER:                  -4.583
REMARK INTRA:                  -0.043
REMARK UNBOUND:                -0.049
REMARK  Name = 31244
REMARK  3 active torsions:
REMARK  status: ('A' for Active; 'I' for Inactive)
REMARK    1  A    between atoms: O_1  and  C_3
REMARK    2  A    between atoms: O_1  and  C_10
REMARK    3  A    between atoms: C_4  and  C_9
REMARK                            x       y       z     vdW  Elec       q    Type
REMARK                         _______ _______ _______ _____ _____    ______ ____
ROOT
ATOM      1  C   UNL     1      -1.371  -0.522 -11.661  0.00  0.00    +0.000 A 
ATOM      2  C   UNL     1      -4.013  -0.496 -10.766  0.00  0.00    +0.000 A 
ATOM      3  C   UNL     1      -1.646  -0.574 -10.294  0.00  0.00    +0.000 A 
ATOM      4  C   UNL     1      -2.418  -0.457 -12.580  0.00  0.00    +0.000 A 
ATOM      5  C   UNL     1      -2.966  -0.561  -9.847  0.00  0.00    +0.000 A 
ATOM      6  C   UNL     1      -3.739  -0.444 -12.133  0.00  0.00    +0.000 A 
ATOM      7  H   UNL     1      -0.834  -0.625  -9.574  0.00  0.00    +0.000 HD
ATOM      8  H   UNL     1      -2.276  -0.414 -13.655  0.00  0.00    +0.000 HD
ATOM      9  H   UNL     1      -3.164  -0.603  -8.779  0.00  0.00    +0.000 HD
ATOM     10  H   UNL     1      -4.540  -0.393 -12.866  0.00  0.00    +0.000 HD
ENDROOT
BRANCH   2  12
ATOM     11  O   UNL     1      -5.837   0.380  -9.538  0.00  0.00    +0.000 OA
ATOM     12  C   UNL     1      -5.391  -0.483 -10.300  0.00  0.00    +0.000 C 
ATOM     13  H   UNL     1      -6.044  -1.295 -10.663  0.00  0.00    +0.000 HD
ENDBRANCH   2  12
BRANCH   1  14
ATOM     14  O   UNL     1      -0.082  -0.534 -12.098  0.00  0.00    +0.000 OA
BRANCH  14  15
ATOM     15  C   UNL     1       0.608   0.714 -12.123  0.00  0.00    +0.000 C 
ATOM     16  H   UNL     1       0.243   1.358 -12.929  0.00  0.00    +0.000 HD
ATOM     17  H   UNL     1       1.692   0.573 -12.162  0.00  0.00    +0.000 HD
ATOM     18  H   UNL     1       0.385   1.225 -11.180  0.00  0.00    +0.000 HD
ENDBRANCH  14  15
ENDBRANCH   1  14
TORSDOF 3
ENDMDL
