MODEL 1
REMARK VINA RESULT:    -4.115      0.000      0.000
REMARK INTER + INTRA:          -5.735
REMARK INTER:                  -5.370
REMARK INTRA:                  -0.366
REMARK UNBOUND:                -0.177
REMARK  Name = 12348
REMARK  7 active torsions:
REMARK  status: ('A' for Active; 'I' for Inactive)
REMARK    1  A    between atoms: O_1  and  C_6
REMARK    2  A    between atoms: O_1  and  C_8
REMARK    3  A    between atoms: C_3  and  C_4
REMARK    4  A    between atoms: C_3  and  C_5
REMARK    5  A    between atoms: C_4  and  C_6
REMARK    6  A    between atoms: C_5  and  C_7
REMARK    7  A    between atoms: C_8  and  C_9
REMARK                            x       y       z     vdW  Elec       q    Type
REMARK                         _______ _______ _______ _____ _____    ______ ____
ROOT
ATOM      1  C   UNL     1       4.540   8.696   1.107  0.00  0.00    +0.000 C 
ATOM      2  H   UNL     1       3.967   7.777   1.284  0.00  0.00    +0.000 HD
ATOM      3  H   UNL     1       4.450   8.901   0.032  0.00  0.00    +0.000 HD
ENDROOT
BRANCH   1   4
ATOM      4  C   UNL     1       6.005   8.485   1.483  0.00  0.00    +0.000 C 
ATOM      5  H   UNL     1       6.144   7.468   1.868  0.00  0.00    +0.000 HD
ATOM      6  H   UNL     1       6.279   9.176   2.290  0.00  0.00    +0.000 HD
BRANCH   4   7
ATOM      7  C   UNL     1       6.926   8.712   0.285  0.00  0.00    +0.000 C 
ATOM      8  H   UNL     1       7.814   8.075   0.371  0.00  0.00    +0.000 HD
ATOM      9  H   UNL     1       6.411   8.428  -0.640  0.00  0.00    +0.000 HD
BRANCH   7  10
ATOM     10  C   UNL     1       7.360  10.166   0.184  0.00  0.00    +0.000 C 
ATOM     11  H   UNL     1       6.495  10.834   0.168  0.00  0.00    +0.000 HD
ATOM     12  H   UNL     1       7.996  10.445   1.030  0.00  0.00    +0.000 HD
ATOM     13  H   UNL     1       7.931  10.327  -0.736  0.00  0.00    +0.000 HD
ENDBRANCH   7  10
ENDBRANCH   4   7
ENDBRANCH   1   4
BRANCH   1  14
ATOM     14  C   UNL     1       3.916   9.840   1.891  0.00  0.00    +0.000 C 
ATOM     15  H   UNL     1       4.703  10.473   2.320  0.00  0.00    +0.000 HD
ATOM     16  H   UNL     1       3.293   9.444   2.701  0.00  0.00    +0.000 HD
BRANCH  14  17
ATOM     17  O   UNL     1       3.114  10.616   1.012  0.00  0.00    +0.000 OA
BRANCH  17  19
ATOM     18  O   UNL     1       4.571  12.350   0.559  0.00  0.00    +0.000 OA
ATOM     19  C   UNL     1       3.789  11.483   0.196  0.00  0.00    +0.000 C 
BRANCH  19  20
ATOM     20  C   UNL     1       3.433  11.218  -1.236  0.00  0.00    +0.000 C 
ATOM     21  H   UNL     1       3.361  10.141  -1.406  0.00  0.00    +0.000 HD
ATOM     22  H   UNL     1       4.184  11.664  -1.892  0.00  0.00    +0.000 HD
ATOM     23  H   UNL     1       2.462  11.671  -1.458  0.00  0.00    +0.000 HD
ENDBRANCH  19  20
ENDBRANCH  17  19
ENDBRANCH  14  17
ENDBRANCH   1  14
TORSDOF 7
ENDMDL
MODEL 2
REMARK VINA RESULT:    -3.967     12.587     13.814
REMARK INTER + INTRA:          -5.535
REMARK INTER:                  -5.135
REMARK INTRA:                  -0.400
REMARK UNBOUND:                -0.177
REMARK  Name = 12348
REMARK  7 active torsions:
REMARK  status: ('A' for Active; 'I' for Inactive)
REMARK    1  A    between atoms: O_1  and  C_6
REMARK    2  A    between atoms: O_1  and  C_8
REMARK    3  A    between atoms: C_3  and  C_4
REMARK    4  A    between atoms: C_3  and  C_5
REMARK    5  A    between atoms: C_4  and  C_6
REMARK    6  A    between atoms: C_5  and  C_7
REMARK    7  A    between atoms: C_8  and  C_9
REMARK                            x       y       z     vdW  Elec       q    Type
REMARK                         _______ _______ _______ _____ _____    ______ ____
ROOT
ATOM      1  C   UNL     1      -2.756   9.399  -9.913  0.00  0.00    +0.000 C 
ATOM      2  H   UNL     1      -3.341  10.251  -9.544  0.00  0.00    +0.000 HD
ATOM      3  H   UNL     1      -3.093   9.229 -10.943  0.00  0.00    +0.000 HD
ENDROOT
BRANCH   1   4
ATOM      4  C   UNL     1      -3.024   8.163  -9.057  0.00  0.00    +0.000 C 
ATOM      5  H   UNL     1      -4.014   8.243  -8.595  0.00  0.00    +0.000 HD
ATOM      6  H   UNL     1      -2.290   8.115  -8.243  0.00  0.00    +0.000 HD
BRANCH   4   7
ATOM      7  C   UNL     1      -2.945   6.883  -9.889  0.00  0.00    +0.000 C 
ATOM      8  H   UNL     1      -1.902   6.559  -9.976  0.00  0.00    +0.000 HD
ATOM      9  H   UNL     1      -3.495   6.079  -9.389  0.00  0.00    +0.000 HD
BRANCH   7  10
ATOM     10  C   UNL     1      -3.523   7.088 -11.281  0.00  0.00    +0.000 C 
ATOM     11  H   UNL     1      -2.984   6.492 -12.022  0.00  0.00    +0.000 HD
ATOM     12  H   UNL     1      -4.580   6.804 -11.312  0.00  0.00    +0.000 HD
ATOM     13  H   UNL     1      -3.447   8.141 -11.571  0.00  0.00    +0.000 HD
ENDBRANCH   7  10
ENDBRANCH   4   7
ENDBRANCH   1   4
BRANCH   1  14
ATOM     14  C   UNL     1      -1.280   9.768  -9.922  0.00  0.00    +0.000 C 
ATOM     15  H   UNL     1      -0.668   8.870  -9.774  0.00  0.00    +0.000 HD
ATOM     16  H   UNL     1      -1.066  10.483  -9.118  0.00  0.00    +0.000 HD
BRANCH  14  17
ATOM     17  O   UNL     1      -0.960  10.355 -11.176  0.00  0.00    +0.000 OA
BRANCH  17  19
ATOM     18  O   UNL     1      -0.148   8.448 -12.195  0.00  0.00    +0.000 OA
ATOM     19  C   UNL     1      -0.798   9.484 -12.218  0.00  0.00    +0.000 C 
BRANCH  19  20
ATOM     20  C   UNL     1      -1.543   9.982 -13.420  0.00  0.00    +0.000 C 
ATOM     21  H   UNL     1      -1.024   9.674 -14.331  0.00  0.00    +0.000 HD
ATOM     22  H   UNL     1      -1.630  11.070 -13.376  0.00  0.00    +0.000 HD
ATOM     23  H   UNL     1      -2.548   9.551 -13.428  0.00  0.00    +0.000 HD
ENDBRANCH  19  20
ENDBRANCH  17  19
ENDBRANCH  14  17
ENDBRANCH   1  14
TORSDOF 7
ENDMDL
MODEL 3
REMARK VINA RESULT:    -3.901     13.176     14.337
REMARK INTER + INTRA:          -5.446
REMARK INTER:                  -5.205
REMARK INTRA:                  -0.241
REMARK UNBOUND:                -0.177
REMARK  Name = 12348
REMARK  7 active torsions:
REMARK  status: ('A' for Active; 'I' for Inactive)
REMARK    1  A    between atoms: O_1  and  C_6
REMARK    2  A    between atoms: O_1  and  C_8
REMARK    3  A    between atoms: C_3  and  C_4
REMARK    4  A    between atoms: C_3  and  C_5
REMARK    5  A    between atoms: C_4  and  C_6
REMARK    6  A    between atoms: C_5  and  C_7
REMARK    7  A    between atoms: C_8  and  C_9
REMARK                            x       y       z     vdW  Elec       q    Type
REMARK                         _______ _______ _______ _____ _____    ______ ____
ROOT
ATOM      1  C   UNL     1      -2.054   6.806 -11.243  0.00  0.00    +0.000 C 
ATOM      2  H   UNL     1      -1.738   5.780 -11.017  0.00  0.00    +0.000 HD
ATOM      3  H   UNL     1      -1.795   7.400 -10.358  0.00  0.00    +0.000 HD
ENDROOT
BRANCH   1   4
ATOM      4  C   UNL     1      -3.561   6.853 -11.488  0.00  0.00    +0.000 C 
ATOM      5  H   UNL     1      -3.855   6.019 -12.136  0.00  0.00    +0.000 HD
ATOM      6  H   UNL     1      -3.817   7.779 -12.017  0.00  0.00    +0.000 HD
BRANCH   4   7
ATOM      7  C   UNL     1      -4.340   6.785 -10.175  0.00  0.00    +0.000 C 
ATOM      8  H   UNL     1      -5.052   7.616 -10.121  0.00  0.00    +0.000 HD
ATOM      9  H   UNL     1      -4.921   5.856 -10.135  0.00  0.00    +0.000 HD
BRANCH   7  10
ATOM     10  C   UNL     1      -3.411   6.842  -8.973  0.00  0.00    +0.000 C 
ATOM     11  H   UNL     1      -2.616   7.578  -9.125  0.00  0.00    +0.000 HD
ATOM     12  H   UNL     1      -3.960   7.110  -8.065  0.00  0.00    +0.000 HD
ATOM     13  H   UNL     1      -2.943   5.865  -8.810  0.00  0.00    +0.000 HD
ENDBRANCH   7  10
ENDBRANCH   4   7
ENDBRANCH   1   4
BRANCH   1  14
ATOM     14  C   UNL     1      -1.273   7.323 -12.442  0.00  0.00    +0.000 C 
ATOM     15  H   UNL     1      -1.964   7.651 -13.228  0.00  0.00    +0.000 HD
ATOM     16  H   UNL     1      -0.628   6.531 -12.840  0.00  0.00    +0.000 HD
BRANCH  14  17
ATOM     17  O   UNL     1      -0.473   8.422 -12.030  0.00  0.00    +0.000 OA
BRANCH  17  19
ATOM     18  O   UNL     1      -1.554  10.237 -12.963  0.00  0.00    +0.000 OA
ATOM     19  C   UNL     1      -1.099   9.638 -11.998  0.00  0.00    +0.000 C 
BRANCH  19  20
ATOM     20  C   UNL     1      -1.156  10.148 -10.590  0.00  0.00    +0.000 C 
ATOM     21  H   UNL     1      -1.624  11.135 -10.572  0.00  0.00    +0.000 HD
ATOM     22  H   UNL     1      -0.148  10.191 -10.172  0.00  0.00    +0.000 HD
ATOM     23  H   UNL     1      -1.757   9.466  -9.982  0.00  0.00    +0.000 HD
ENDBRANCH  19  20
ENDBRANCH  17  19
ENDBRANCH  14  17
ENDBRANCH   1  14
TORSDOF 7
ENDMDL
MODEL 4
REMARK VINA RESULT:    -3.888     27.838     28.732
REMARK INTER + INTRA:          -5.428
REMARK INTER:                  -5.306
REMARK INTRA:                  -0.122
REMARK UNBOUND:                -0.177
REMARK  Name = 12348
REMARK  7 active torsions:
REMARK  status: ('A' for Active; 'I' for Inactive)
REMARK    1  A    between atoms: O_1  and  C_6
REMARK    2  A    between atoms: O_1  and  C_8
REMARK    3  A    between atoms: C_3  and  C_4
REMARK    4  A    between atoms: C_3  and  C_5
REMARK    5  A    between atoms: C_4  and  C_6
REMARK    6  A    between atoms: C_5  and  C_7
REMARK    7  A    between atoms: C_8  and  C_9
REMARK                            x       y       z     vdW  Elec       q    Type
REMARK                         _______ _______ _______ _____ _____    ______ ____
ROOT
ATOM      1  C   UNL     1     -20.442  -2.993   5.617  0.00  0.00    +0.000 C 
ATOM      2  H   UNL     1     -20.862  -3.030   6.630  0.00  0.00    +0.000 HD
ATOM      3  H   UNL     1     -19.353  -2.990   5.745  0.00  0.00    +0.000 HD
ENDROOT
BRANCH   1   4
ATOM      4  C   UNL     1     -20.893  -1.720   4.903  0.00  0.00    +0.000 C 
ATOM      5  H   UNL     1     -21.981  -1.739   4.768  0.00  0.00    +0.000 HD
ATOM      6  H   UNL     1     -20.444  -1.682   3.903  0.00  0.00    +0.000 HD
BRANCH   4   7
ATOM      7  C   UNL     1     -20.494  -0.471   5.689  0.00  0.00    +0.000 C 
ATOM      8  H   UNL     1     -19.506  -0.126   5.364  0.00  0.00    +0.000 HD
ATOM      9  H   UNL     1     -21.203   0.339   5.486  0.00  0.00    +0.000 HD
BRANCH   7  10
ATOM     10  C   UNL     1     -20.463  -0.741   7.185  0.00  0.00    +0.000 C 
ATOM     11  H   UNL     1     -19.969   0.074   7.721  0.00  0.00    +0.000 HD
ATOM     12  H   UNL     1     -21.476  -0.854   7.584  0.00  0.00    +0.000 HD
ATOM     13  H   UNL     1     -19.912  -1.665   7.391  0.00  0.00    +0.000 HD
ENDBRANCH   7  10
ENDBRANCH   4   7
ENDBRANCH   1   4
BRANCH   1  14
ATOM     14  C   UNL     1     -20.855  -4.242   4.853  0.00  0.00    +0.000 C 
ATOM     15  H   UNL     1     -21.907  -4.167   4.552  0.00  0.00    +0.000 HD
ATOM     16  H   UNL     1     -20.726  -5.128   5.486  0.00  0.00    +0.000 HD
BRANCH  14  17
ATOM     17  O   UNL     1     -20.041  -4.364   3.695  0.00  0.00    +0.000 OA
BRANCH  17  19
ATOM     18  O   UNL     1     -18.514  -5.634   4.874  0.00  0.00    +0.000 OA
ATOM     19  C   UNL     1     -18.866  -5.046   3.861  0.00  0.00    +0.000 C 
BRANCH  19  20
ATOM     20  C   UNL     1     -18.053  -4.974   2.605  0.00  0.00    +0.000 C 
ATOM     21  H   UNL     1     -18.408  -4.150   1.981  0.00  0.00    +0.000 HD
ATOM     22  H   UNL     1     -18.119  -5.922   2.066  0.00  0.00    +0.000 HD
ATOM     23  H   UNL     1     -17.005  -4.791   2.861  0.00  0.00    +0.000 HD
ENDBRANCH  19  20
ENDBRANCH  17  19
ENDBRANCH  14  17
ENDBRANCH   1  14
TORSDOF 7
ENDMDL
MODEL 5
REMARK VINA RESULT:    -3.739     28.041     28.774
REMARK INTER + INTRA:          -5.227
REMARK INTER:                  -5.103
REMARK INTRA:                  -0.123
REMARK UNBOUND:                -0.177
REMARK  Name = 12348
REMARK  7 active torsions:
REMARK  status: ('A' for Active; 'I' for Inactive)
REMARK    1  A    between atoms: O_1  and  C_6
REMARK    2  A    between atoms: O_1  and  C_8
REMARK    3  A    between atoms: C_3  and  C_4
REMARK    4  A    between atoms: C_3  and  C_5
REMARK    5  A    between atoms: C_4  and  C_6
REMARK    6  A    between atoms: C_5  and  C_7
REMARK    7  A    between atoms: C_8  and  C_9
REMARK                            x       y       z     vdW  Elec       q    Type
REMARK                         _______ _______ _______ _____ _____    ______ ____
ROOT
ATOM      1  C   UNL     1     -20.558  -3.653   4.802  0.00  0.00    +0.000 C 
ATOM      2  H   UNL     1     -21.359  -3.999   4.137  0.00  0.00    +0.000 HD
ATOM      3  H   UNL     1     -20.077  -2.817   4.279  0.00  0.00    +0.000 HD
ENDROOT
BRANCH   1   4
ATOM      4  C   UNL     1     -19.550  -4.775   5.044  0.00  0.00    +0.000 C 
ATOM      5  H   UNL     1     -19.875  -5.384   5.896  0.00  0.00    +0.000 HD
ATOM      6  H   UNL     1     -18.577  -4.343   5.308  0.00  0.00    +0.000 HD
BRANCH   4   7
ATOM      7  C   UNL     1     -19.395  -5.660   3.808  0.00  0.00    +0.000 C 
ATOM      8  H   UNL     1     -18.890  -6.594   4.079  0.00  0.00    +0.000 HD
ATOM      9  H   UNL     1     -20.383  -5.928   3.415  0.00  0.00    +0.000 HD
BRANCH   7  10
ATOM     10  C   UNL     1     -18.600  -4.959   2.717  0.00  0.00    +0.000 C 
ATOM     11  H   UNL     1     -18.592  -3.876   2.873  0.00  0.00    +0.000 HD
ATOM     12  H   UNL     1     -17.565  -5.312   2.698  0.00  0.00    +0.000 HD
ATOM     13  H   UNL     1     -19.045  -5.158   1.737  0.00  0.00    +0.000 HD
ENDBRANCH   7  10
ENDBRANCH   4   7
ENDBRANCH   1   4
BRANCH   1  14
ATOM     14  C   UNL     1     -21.164  -3.150   6.104  0.00  0.00    +0.000 C 
ATOM     15  H   UNL     1     -21.402  -3.997   6.758  0.00  0.00    +0.000 HD
ATOM     16  H   UNL     1     -22.083  -2.589   5.897  0.00  0.00    +0.000 HD
BRANCH  14  17
ATOM     17  O   UNL     1     -20.226  -2.302   6.750  0.00  0.00    +0.000 OA
BRANCH  17  19
ATOM     18  O   UNL     1     -21.167  -0.628   8.033  0.00  0.00    +0.000 OA
ATOM     19  C   UNL     1     -20.648  -1.025   6.999  0.00  0.00    +0.000 C 
BRANCH  19  20
ATOM     20  C   UNL     1     -20.381  -0.158   5.806  0.00  0.00    +0.000 C 
ATOM     21  H   UNL     1     -19.731   0.672   6.090  0.00  0.00    +0.000 HD
ATOM     22  H   UNL     1     -21.325   0.213   5.400  0.00  0.00    +0.000 HD
ATOM     23  H   UNL     1     -19.877  -0.747   5.034  0.00  0.00    +0.000 HD
ENDBRANCH  19  20
ENDBRANCH  17  19
ENDBRANCH  14  17
ENDBRANCH   1  14
TORSDOF 7
ENDMDL
MODEL 6
REMARK VINA RESULT:    -3.714     13.161     14.612
REMARK INTER + INTRA:          -5.193
REMARK INTER:                  -4.995
REMARK INTRA:                  -0.199
REMARK UNBOUND:                -0.177
REMARK  Name = 12348
REMARK  7 active torsions:
REMARK  status: ('A' for Active; 'I' for Inactive)
REMARK    1  A    between atoms: O_1  and  C_6
REMARK    2  A    between atoms: O_1  and  C_8
REMARK    3  A    between atoms: C_3  and  C_4
REMARK    4  A    between atoms: C_3  and  C_5
REMARK    5  A    between atoms: C_4  and  C_6
REMARK    6  A    between atoms: C_5  and  C_7
REMARK    7  A    between atoms: C_8  and  C_9
REMARK                            x       y       z     vdW  Elec       q    Type
REMARK                         _______ _______ _______ _____ _____    ______ ____
ROOT
ATOM      1  C   UNL     1      -7.714  11.469   4.880  0.00  0.00    +0.000 C 
ATOM      2  H   UNL     1      -6.790  11.024   5.269  0.00  0.00    +0.000 HD
ATOM      3  H   UNL     1      -7.882  11.002   3.901  0.00  0.00    +0.000 HD
ENDROOT
BRANCH   1   4
ATOM      4  C   UNL     1      -7.548  12.979   4.722  0.00  0.00    +0.000 C 
ATOM      5  H   UNL     1      -8.358  13.496   5.251  0.00  0.00    +0.000 HD
ATOM      6  H   UNL     1      -7.631  13.248   3.662  0.00  0.00    +0.000 HD
BRANCH   4   7
ATOM      7  C   UNL     1      -6.198  13.450   5.262  0.00  0.00    +0.000 C 
ATOM      8  H   UNL     1      -5.447  12.663   5.126  0.00  0.00    +0.000 HD
ATOM      9  H   UNL     1      -5.857  14.326   4.700  0.00  0.00    +0.000 HD
BRANCH   7  10
ATOM     10  C   UNL     1      -6.284  13.809   6.737  0.00  0.00    +0.000 C 
ATOM     11  H   UNL     1      -6.868  14.722   6.886  0.00  0.00    +0.000 HD
ATOM     12  H   UNL     1      -6.753  13.003   7.311  0.00  0.00    +0.000 HD
ATOM     13  H   UNL     1      -5.282  13.977   7.145  0.00  0.00    +0.000 HD
ENDBRANCH   7  10
ENDBRANCH   4   7
ENDBRANCH   1   4
BRANCH   1  14
ATOM     14  C   UNL     1      -8.870  11.124   5.806  0.00  0.00    +0.000 C 
ATOM     15  H   UNL     1      -9.452  10.294   5.387  0.00  0.00    +0.000 HD
ATOM     16  H   UNL     1      -9.526  11.994   5.929  0.00  0.00    +0.000 HD
BRANCH  14  17
ATOM     17  O   UNL     1      -8.348  10.743   7.071  0.00  0.00    +0.000 OA
BRANCH  17  19
ATOM     18  O   UNL     1      -8.282   8.736   8.213  0.00  0.00    +0.000 OA
ATOM     19  C   UNL     1      -8.895   9.619   7.628  0.00  0.00    +0.000 C 
BRANCH  19  20
ATOM     20  C   UNL     1     -10.379   9.617   7.422  0.00  0.00    +0.000 C 
ATOM     21  H   UNL     1     -10.887   9.589   8.389  0.00  0.00    +0.000 HD
ATOM     22  H   UNL     1     -10.667   8.759   6.811  0.00  0.00    +0.000 HD
ATOM     23  H   UNL     1     -10.674  10.532   6.901  0.00  0.00    +0.000 HD
ENDBRANCH  19  20
ENDBRANCH  17  19
ENDBRANCH  14  17
ENDBRANCH   1  14
TORSDOF 7
ENDMDL
MODEL 7
REMARK VINA RESULT:    -3.705     13.469     14.960
REMARK INTER + INTRA:          -5.181
REMARK INTER:                  -5.007
REMARK INTRA:                  -0.174
REMARK UNBOUND:                -0.177
REMARK  Name = 12348
REMARK  7 active torsions:
REMARK  status: ('A' for Active; 'I' for Inactive)
REMARK    1  A    between atoms: O_1  and  C_6
REMARK    2  A    between atoms: O_1  and  C_8
REMARK    3  A    between atoms: C_3  and  C_4
REMARK    4  A    between atoms: C_3  and  C_5
REMARK    5  A    between atoms: C_4  and  C_6
REMARK    6  A    between atoms: C_5  and  C_7
REMARK    7  A    between atoms: C_8  and  C_9
REMARK                            x       y       z     vdW  Elec       q    Type
REMARK                         _______ _______ _______ _____ _____    ______ ____
ROOT
ATOM      1  C   UNL     1      -8.104  11.852   6.949  0.00  0.00    +0.000 C 
ATOM      2  H   UNL     1      -8.436  12.890   6.821  0.00  0.00    +0.000 HD
ATOM      3  H   UNL     1      -7.056  11.911   7.268  0.00  0.00    +0.000 HD
ENDROOT
BRANCH   1   4
ATOM      4  C   UNL     1      -8.212  11.096   5.626  0.00  0.00    +0.000 C 
ATOM      5  H   UNL     1      -9.244  11.140   5.260  0.00  0.00    +0.000 HD
ATOM      6  H   UNL     1      -7.970  10.039   5.787  0.00  0.00    +0.000 HD
BRANCH   4   7
ATOM      7  C   UNL     1      -7.268  11.679   4.574  0.00  0.00    +0.000 C 
ATOM      8  H   UNL     1      -6.465  10.966   4.358  0.00  0.00    +0.000 HD
ATOM      9  H   UNL     1      -7.812  11.850   3.639  0.00  0.00    +0.000 HD
BRANCH   7  10
ATOM     10  C   UNL     1      -6.659  12.993   5.040  0.00  0.00    +0.000 C 
ATOM     11  H   UNL     1      -5.611  12.860   5.327  0.00  0.00    +0.000 HD
ATOM     12  H   UNL     1      -6.707  13.749   4.251  0.00  0.00    +0.000 HD
ATOM     13  H   UNL     1      -7.203  13.375   5.910  0.00  0.00    +0.000 HD
ENDBRANCH   7  10
ENDBRANCH   4   7
ENDBRANCH   1   4
BRANCH   1  14
ATOM     14  C   UNL     1      -8.926  11.189   8.044  0.00  0.00    +0.000 C 
ATOM     15  H   UNL     1      -9.680  10.529   7.599  0.00  0.00    +0.000 HD
ATOM     16  H   UNL     1      -9.431  11.952   8.648  0.00  0.00    +0.000 HD
BRANCH  14  17
ATOM     17  O   UNL     1      -8.060  10.426   8.871  0.00  0.00    +0.000 OA
BRANCH  17  19
ATOM     18  O   UNL     1      -8.365   8.391   7.823  0.00  0.00    +0.000 OA
ATOM     19  C   UNL     1      -8.238   9.070   8.832  0.00  0.00    +0.000 C 
BRANCH  19  20
ATOM     20  C   UNL     1      -8.257   8.517  10.225  0.00  0.00    +0.000 C 
ATOM     21  H   UNL     1      -8.785   9.205  10.889  0.00  0.00    +0.000 HD
ATOM     22  H   UNL     1      -7.234   8.355  10.572  0.00  0.00    +0.000 HD
ATOM     23  H   UNL     1      -8.782   7.558  10.227  0.00  0.00    +0.000 HD
ENDBRANCH  19  20
ENDBRANCH  17  19
ENDBRANCH  14  17
ENDBRANCH   1  14
TORSDOF 7
ENDMDL
MODEL 8
REMARK VINA RESULT:    -3.695     13.291     14.922
REMARK INTER + INTRA:          -5.168
REMARK INTER:                  -5.023
REMARK INTRA:                  -0.145
REMARK UNBOUND:                -0.177
REMARK  Name = 12348
REMARK  7 active torsions:
REMARK  status: ('A' for Active; 'I' for Inactive)
REMARK    1  A    between atoms: O_1  and  C_6
REMARK    2  A    between atoms: O_1  and  C_8
REMARK    3  A    between atoms: C_3  and  C_4
REMARK    4  A    between atoms: C_3  and  C_5
REMARK    5  A    between atoms: C_4  and  C_6
REMARK    6  A    between atoms: C_5  and  C_7
REMARK    7  A    between atoms: C_8  and  C_9
REMARK                            x       y       z     vdW  Elec       q    Type
REMARK                         _______ _______ _______ _____ _____    ______ ____
ROOT
ATOM      1  C   UNL     1      -1.693   6.843 -11.420  0.00  0.00    +0.000 C 
ATOM      2  H   UNL     1      -1.230   5.854 -11.310  0.00  0.00    +0.000 HD
ATOM      3  H   UNL     1      -1.138   7.509 -10.748  0.00  0.00    +0.000 HD
ENDROOT
BRANCH   1   4
ATOM      4  C   UNL     1      -3.164   6.786 -11.011  0.00  0.00    +0.000 C 
ATOM      5  H   UNL     1      -3.607   5.846 -11.360  0.00  0.00    +0.000 HD
ATOM      6  H   UNL     1      -3.711   7.602 -11.498  0.00  0.00    +0.000 HD
BRANCH   4   7
ATOM      7  C   UNL     1      -3.324   6.899  -9.496  0.00  0.00    +0.000 C 
ATOM      8  H   UNL     1      -4.361   6.682  -9.213  0.00  0.00    +0.000 HD
ATOM      9  H   UNL     1      -2.690   6.157  -8.997  0.00  0.00    +0.000 HD
BRANCH   7  10
ATOM     10  C   UNL     1      -2.950   8.286  -8.998  0.00  0.00    +0.000 C 
ATOM     11  H   UNL     1      -3.090   8.367  -7.916  0.00  0.00    +0.000 HD
ATOM     12  H   UNL     1      -1.904   8.516  -9.228  0.00  0.00    +0.000 HD
ATOM     13  H   UNL     1      -3.577   9.043  -9.480  0.00  0.00    +0.000 HD
ENDBRANCH   7  10
ENDBRANCH   4   7
ENDBRANCH   1   4
BRANCH   1  14
ATOM     14  C   UNL     1      -1.526   7.321 -12.854  0.00  0.00    +0.000 C 
ATOM     15  H   UNL     1      -2.461   7.768 -13.212  0.00  0.00    +0.000 HD
ATOM     16  H   UNL     1      -1.261   6.478 -13.503  0.00  0.00    +0.000 HD
BRANCH  14  17
ATOM     17  O   UNL     1      -0.492   8.295 -12.897  0.00  0.00    +0.000 OA
BRANCH  17  19
ATOM     18  O   UNL     1       0.797   9.468 -14.412  0.00  0.00    +0.000 OA
ATOM     19  C   UNL     1      -0.169   8.768 -14.139  0.00  0.00    +0.000 C 
BRANCH  19  20
ATOM     20  C   UNL     1      -1.180   8.303 -15.142  0.00  0.00    +0.000 C 
ATOM     21  H   UNL     1      -1.481   9.139 -15.778  0.00  0.00    +0.000 HD
ATOM     22  H   UNL     1      -2.045   7.880 -14.626  0.00  0.00    +0.000 HD
ATOM     23  H   UNL     1      -0.736   7.528 -15.773  0.00  0.00    +0.000 HD
ENDBRANCH  19  20
ENDBRANCH  17  19
ENDBRANCH  14  17
ENDBRANCH   1  14
TORSDOF 7
ENDMDL
MODEL 9
REMARK VINA RESULT:    -3.685      5.483      6.647
REMARK INTER + INTRA:          -5.154
REMARK INTER:                  -4.982
REMARK INTRA:                  -0.172
REMARK UNBOUND:                -0.177
REMARK  Name = 12348
REMARK  7 active torsions:
REMARK  status: ('A' for Active; 'I' for Inactive)
REMARK    1  A    between atoms: O_1  and  C_6
REMARK    2  A    between atoms: O_1  and  C_8
REMARK    3  A    between atoms: C_3  and  C_4
REMARK    4  A    between atoms: C_3  and  C_5
REMARK    5  A    between atoms: C_4  and  C_6
REMARK    6  A    between atoms: C_5  and  C_7
REMARK    7  A    between atoms: C_8  and  C_9
REMARK                            x       y       z     vdW  Elec       q    Type
REMARK                         _______ _______ _______ _____ _____    ______ ____
ROOT
ATOM      1  C   UNL     1       7.218   8.445   4.832  0.00  0.00    +0.000 C 
ATOM      2  H   UNL     1       7.014   8.956   3.883  0.00  0.00    +0.000 HD
ATOM      3  H   UNL     1       8.310   8.346   4.889  0.00  0.00    +0.000 HD
ENDROOT
BRANCH   1   4
ATOM      4  C   UNL     1       6.563   7.065   4.842  0.00  0.00    +0.000 C 
ATOM      5  H   UNL     1       5.864   6.996   5.684  0.00  0.00    +0.000 HD
ATOM      6  H   UNL     1       7.329   6.296   4.993  0.00  0.00    +0.000 HD
BRANCH   4   7
ATOM      7  C   UNL     1       5.821   6.793   3.534  0.00  0.00    +0.000 C 
ATOM      8  H   UNL     1       5.967   5.750   3.232  0.00  0.00    +0.000 HD
ATOM      9  H   UNL     1       4.745   6.942   3.678  0.00  0.00    +0.000 HD
BRANCH   7  10
ATOM     10  C   UNL     1       6.303   7.709   2.419  0.00  0.00    +0.000 C 
ATOM     11  H   UNL     1       5.690   7.591   1.521  0.00  0.00    +0.000 HD
ATOM     12  H   UNL     1       6.263   8.758   2.729  0.00  0.00    +0.000 HD
ATOM     13  H   UNL     1       7.339   7.471   2.157  0.00  0.00    +0.000 HD
ENDBRANCH   7  10
ENDBRANCH   4   7
ENDBRANCH   1   4
BRANCH   1  14
ATOM     14  C   UNL     1       6.731   9.308   5.986  0.00  0.00    +0.000 C 
ATOM     15  H   UNL     1       6.548   8.684   6.869  0.00  0.00    +0.000 HD
ATOM     16  H   UNL     1       5.800   9.815   5.707  0.00  0.00    +0.000 HD
BRANCH  14  17
ATOM     17  O   UNL     1       7.726  10.275   6.289  0.00  0.00    +0.000 OA
BRANCH  17  19
ATOM     18  O   UNL     1       7.464  11.562   8.189  0.00  0.00    +0.000 OA
ATOM     19  C   UNL     1       7.889  10.568   7.615  0.00  0.00    +0.000 C 
BRANCH  19  20
ATOM     20  C   UNL     1       8.675   9.483   8.286  0.00  0.00    +0.000 C 
ATOM     21  H   UNL     1       9.741   9.722   8.250  0.00  0.00    +0.000 HD
ATOM     22  H   UNL     1       8.478   8.527   7.795  0.00  0.00    +0.000 HD
ATOM     23  H   UNL     1       8.370   9.407   9.333  0.00  0.00    +0.000 HD
ENDBRANCH  19  20
ENDBRANCH  17  19
ENDBRANCH  14  17
ENDBRANCH   1  14
TORSDOF 7
ENDMDL
MODEL 10
REMARK VINA RESULT:    -3.514     17.864     18.589
REMARK INTER + INTRA:          -4.924
REMARK INTER:                  -4.747
REMARK INTRA:                  -0.177
REMARK UNBOUND:                -0.177
REMARK  Name = 12348
REMARK  7 active torsions:
REMARK  status: ('A' for Active; 'I' for Inactive)
REMARK    1  A    between atoms: O_1  and  C_6
REMARK    2  A    between atoms: O_1  and  C_8
REMARK    3  A    between atoms: C_3  and  C_4
REMARK    4  A    between atoms: C_3  and  C_5
REMARK    5  A    between atoms: C_4  and  C_6
REMARK    6  A    between atoms: C_5  and  C_7
REMARK    7  A    between atoms: C_8  and  C_9
REMARK                            x       y       z     vdW  Elec       q    Type
REMARK                         _______ _______ _______ _____ _____    ______ ____
ROOT
ATOM      1  C   UNL     1       3.379   0.314 -15.843  0.00  0.00    +0.000 C 
ATOM      2  H   UNL     1       2.889  -0.613 -16.166  0.00  0.00    +0.000 HD
ATOM      3  H   UNL     1       3.401   0.963 -16.728  0.00  0.00    +0.000 HD
ENDROOT
BRANCH   1   4
ATOM      4  C   UNL     1       4.800   0.023 -15.366  0.00  0.00    +0.000 C 
ATOM      5  H   UNL     1       4.825   0.008 -14.270  0.00  0.00    +0.000 HD
ATOM      6  H   UNL     1       5.469   0.827 -15.694  0.00  0.00    +0.000 HD
BRANCH   4   7
ATOM      7  C   UNL     1       5.306  -1.314 -15.909  0.00  0.00    +0.000 C 
ATOM      8  H   UNL     1       5.865  -1.845 -15.131  0.00  0.00    +0.000 HD
ATOM      9  H   UNL     1       4.457  -1.948 -16.189  0.00  0.00    +0.000 HD
BRANCH   7  10
ATOM     10  C   UNL     1       6.201  -1.118 -17.123  0.00  0.00    +0.000 C 
ATOM     11  H   UNL     1       6.641  -2.066 -17.444  0.00  0.00    +0.000 HD
ATOM     12  H   UNL     1       5.637  -0.698 -17.963  0.00  0.00    +0.000 HD
ATOM     13  H   UNL     1       7.017  -0.427 -16.884  0.00  0.00    +0.000 HD
ENDBRANCH   7  10
ENDBRANCH   4   7
ENDBRANCH   1   4
BRANCH   1  14
ATOM     14  C   UNL     1       2.545   0.975 -14.756  0.00  0.00    +0.000 C 
ATOM     15  H   UNL     1       1.477   0.848 -14.974  0.00  0.00    +0.000 HD
ATOM     16  H   UNL     1       2.775   2.046 -14.706  0.00  0.00    +0.000 HD
BRANCH  14  17
ATOM     17  O   UNL     1       2.848   0.366 -13.509  0.00  0.00    +0.000 OA
BRANCH  17  19
ATOM     18  O   UNL     1       1.585  -1.450 -12.842  0.00  0.00    +0.000 OA
ATOM     19  C   UNL     1       1.802  -0.246 -12.874  0.00  0.00    +0.000 C 
BRANCH  19  20
ATOM     20  C   UNL     1       0.939   0.781 -12.206  0.00  0.00    +0.000 C 
ATOM     21  H   UNL     1       0.767   0.498 -11.164  0.00  0.00    +0.000 HD
ATOM     22  H   UNL     1      -0.008   0.873 -12.741  0.00  0.00    +0.000 HD
ATOM     23  H   UNL     1       1.447   1.749 -12.224  0.00  0.00    +0.000 HD
ENDBRANCH  19  20
ENDBRANCH  17  19
ENDBRANCH  14  17
ENDBRANCH   1  14
TORSDOF 7
ENDMDL
