MODEL 1
REMARK VINA RESULT:    -4.877      0.000      0.000
REMARK INTER + INTRA:          -5.315
REMARK INTER:                  -5.301
REMARK INTRA:                  -0.014
REMARK UNBOUND:                -0.010
REMARK  Name = 244
REMARK  2 active torsions:
REMARK  status: ('A' for Active; 'I' for Inactive)
REMARK    1  A    between atoms: O_1  and  C_3
REMARK    2  A    between atoms: C_2  and  C_3
REMARK                            x       y       z     vdW  Elec       q    Type
REMARK                         _______ _______ _______ _____ _____    ______ ____
ROOT
ATOM      1  C   UNL     1      -1.831   8.093 -11.170  0.00  0.00    +0.000 A 
ATOM      2  C   UNL     1      -2.496   6.958 -10.706  0.00  0.00    +0.000 A 
ATOM      3  C   UNL     1      -1.824   9.260 -10.405  0.00  0.00    +0.000 A 
ATOM      4  C   UNL     1      -3.154   6.990  -9.476  0.00  0.00    +0.000 A 
ATOM      5  C   UNL     1      -2.481   9.291  -9.174  0.00  0.00    +0.000 A 
ATOM      6  C   UNL     1      -3.145   8.156  -8.711  0.00  0.00    +0.000 A 
ATOM      7  H   UNL     1      -2.507   6.044 -11.291  0.00  0.00    +0.000 HD
ATOM      8  H   UNL     1      -1.308  10.150 -10.755  0.00  0.00    +0.000 HD
ATOM      9  H   UNL     1      -3.670   6.105  -9.114  0.00  0.00    +0.000 HD
ATOM     10  H   UNL     1      -2.475  10.198  -8.578  0.00  0.00    +0.000 HD
ATOM     11  H   UNL     1      -3.657   8.180  -7.752  0.00  0.00    +0.000 HD
ENDROOT
BRANCH   1  12
ATOM     12  C   UNL     1      -1.128   8.060 -12.486  0.00  0.00    +0.000 C 
ATOM     13  H   UNL     1      -1.099   7.046 -12.898  0.00  0.00    +0.000 HD
ATOM     14  H   UNL     1      -1.630   8.695 -13.223  0.00  0.00    +0.000 HD
BRANCH  12  15
ATOM     15  O   UNL     1       0.205   8.525 -12.320  0.00  0.00    +0.000 OA
ATOM     16  H   UNL     1       0.227   9.473 -12.537  0.00  0.00    +0.000 HD
ENDBRANCH  12  15
ENDBRANCH   1  12
TORSDOF 2
ENDMDL
MODEL 2
REMARK VINA RESULT:    -4.622     26.085     26.663
REMARK INTER + INTRA:          -5.037
REMARK INTER:                  -5.018
REMARK INTRA:                  -0.020
REMARK UNBOUND:                -0.010
REMARK  Name = 244
REMARK  2 active torsions:
REMARK  status: ('A' for Active; 'I' for Inactive)
REMARK    1  A    between atoms: O_1  and  C_3
REMARK    2  A    between atoms: C_2  and  C_3
REMARK                            x       y       z     vdW  Elec       q    Type
REMARK                         _______ _______ _______ _____ _____    ______ ____
ROOT
ATOM      1  C   UNL     1     -19.991  -4.301   4.441  0.00  0.00    +0.000 A 
ATOM      2  C   UNL     1     -20.372  -3.764   3.211  0.00  0.00    +0.000 A 
ATOM      3  C   UNL     1     -20.368  -3.667   5.625  0.00  0.00    +0.000 A 
ATOM      4  C   UNL     1     -21.131  -2.594   3.165  0.00  0.00    +0.000 A 
ATOM      5  C   UNL     1     -21.127  -2.498   5.579  0.00  0.00    +0.000 A 
ATOM      6  C   UNL     1     -21.508  -1.962   4.350  0.00  0.00    +0.000 A 
ATOM      7  H   UNL     1     -20.087  -4.249   2.282  0.00  0.00    +0.000 HD
ATOM      8  H   UNL     1     -20.079  -4.076   6.589  0.00  0.00    +0.000 HD
ATOM      9  H   UNL     1     -21.428  -2.178   2.207  0.00  0.00    +0.000 HD
ATOM     10  H   UNL     1     -21.421  -2.005   6.501  0.00  0.00    +0.000 HD
ATOM     11  H   UNL     1     -22.100  -1.051   4.314  0.00  0.00    +0.000 HD
ENDROOT
BRANCH   1  12
ATOM     12  C   UNL     1     -19.180  -5.552   4.489  0.00  0.00    +0.000 C 
ATOM     13  H   UNL     1     -19.809  -6.441   4.385  0.00  0.00    +0.000 HD
ATOM     14  H   UNL     1     -18.441  -5.581   3.681  0.00  0.00    +0.000 HD
BRANCH  12  15
ATOM     15  O   UNL     1     -18.493  -5.621   5.732  0.00  0.00    +0.000 OA
ATOM     16  H   UNL     1     -18.435  -6.555   5.998  0.00  0.00    +0.000 HD
ENDBRANCH  12  15
ENDBRANCH   1  12
TORSDOF 2
ENDMDL
MODEL 3
REMARK VINA RESULT:    -4.466      2.361      3.676
REMARK INTER + INTRA:          -4.868
REMARK INTER:                  -4.854
REMARK INTRA:                  -0.014
REMARK UNBOUND:                -0.010
REMARK  Name = 244
REMARK  2 active torsions:
REMARK  status: ('A' for Active; 'I' for Inactive)
REMARK    1  A    between atoms: O_1  and  C_3
REMARK    2  A    between atoms: C_2  and  C_3
REMARK                            x       y       z     vdW  Elec       q    Type
REMARK                         _______ _______ _______ _____ _____    ______ ____
ROOT
ATOM      1  C   UNL     1      -3.335   6.904 -10.437  0.00  0.00    +0.000 A 
ATOM      2  C   UNL     1      -4.443   6.867 -11.284  0.00  0.00    +0.000 A 
ATOM      3  C   UNL     1      -2.047   6.905 -10.973  0.00  0.00    +0.000 A 
ATOM      4  C   UNL     1      -4.263   6.832 -12.667  0.00  0.00    +0.000 A 
ATOM      5  C   UNL     1      -1.868   6.871 -12.357  0.00  0.00    +0.000 A 
ATOM      6  C   UNL     1      -2.976   6.834 -13.202  0.00  0.00    +0.000 A 
ATOM      7  H   UNL     1      -5.451   6.868 -10.878  0.00  0.00    +0.000 HD
ATOM      8  H   UNL     1      -1.176   6.936 -10.325  0.00  0.00    +0.000 HD
ATOM      9  H   UNL     1      -5.127   6.804 -13.325  0.00  0.00    +0.000 HD
ATOM     10  H   UNL     1      -0.866   6.873 -12.775  0.00  0.00    +0.000 HD
ATOM     11  H   UNL     1      -2.836   6.807 -14.280  0.00  0.00    +0.000 HD
ENDROOT
BRANCH   1  12
ATOM     12  C   UNL     1      -3.527   6.941  -8.958  0.00  0.00    +0.000 C 
ATOM     13  H   UNL     1      -4.586   7.033  -8.694  0.00  0.00    +0.000 HD
ATOM     14  H   UNL     1      -3.153   6.028  -8.483  0.00  0.00    +0.000 HD
BRANCH  12  15
ATOM     15  O   UNL     1      -2.823   8.053  -8.419  0.00  0.00    +0.000 OA
ATOM     16  H   UNL     1      -1.982   7.732  -8.051  0.00  0.00    +0.000 HD
ENDBRANCH  12  15
ENDBRANCH   1  12
TORSDOF 2
ENDMDL
MODEL 4
REMARK VINA RESULT:    -4.458      8.398      9.765
REMARK INTER + INTRA:          -4.859
REMARK INTER:                  -4.844
REMARK INTRA:                  -0.015
REMARK UNBOUND:                -0.010
REMARK  Name = 244
REMARK  2 active torsions:
REMARK  status: ('A' for Active; 'I' for Inactive)
REMARK    1  A    between atoms: O_1  and  C_3
REMARK    2  A    between atoms: C_2  and  C_3
REMARK                            x       y       z     vdW  Elec       q    Type
REMARK                         _______ _______ _______ _____ _____    ______ ____
ROOT
ATOM      1  C   UNL     1      -9.188   5.599  -5.349  0.00  0.00    +0.000 A 
ATOM      2  C   UNL     1     -10.538   5.417  -5.647  0.00  0.00    +0.000 A 
ATOM      3  C   UNL     1      -8.427   4.528  -4.879  0.00  0.00    +0.000 A 
ATOM      4  C   UNL     1     -11.128   4.164  -5.476  0.00  0.00    +0.000 A 
ATOM      5  C   UNL     1      -9.017   3.275  -4.709  0.00  0.00    +0.000 A 
ATOM      6  C   UNL     1     -10.367   3.094  -5.007  0.00  0.00    +0.000 A 
ATOM      7  H   UNL     1     -11.140   6.242  -6.015  0.00  0.00    +0.000 HD
ATOM      8  H   UNL     1      -7.374   4.656  -4.645  0.00  0.00    +0.000 HD
ATOM      9  H   UNL     1     -12.180   4.024  -5.709  0.00  0.00    +0.000 HD
ATOM     10  H   UNL     1      -8.425   2.441  -4.344  0.00  0.00    +0.000 HD
ATOM     11  H   UNL     1     -10.826   2.118  -4.875  0.00  0.00    +0.000 HD
ENDROOT
BRANCH   1  12
ATOM     12  C   UNL     1      -8.557   6.938  -5.531  0.00  0.00    +0.000 C 
ATOM     13  H   UNL     1      -9.214   7.618  -6.084  0.00  0.00    +0.000 HD
ATOM     14  H   UNL     1      -8.338   7.412  -4.568  0.00  0.00    +0.000 HD
BRANCH  12  15
ATOM     15  O   UNL     1      -7.339   6.792  -6.251  0.00  0.00    +0.000 OA
ATOM     16  H   UNL     1      -7.301   7.488  -6.930  0.00  0.00    +0.000 HD
ENDBRANCH  12  15
ENDBRANCH   1  12
TORSDOF 2
ENDMDL
MODEL 5
REMARK VINA RESULT:    -4.446     13.555     14.390
REMARK INTER + INTRA:          -4.846
REMARK INTER:                  -4.833
REMARK INTRA:                  -0.013
REMARK UNBOUND:                -0.010
REMARK  Name = 244
REMARK  2 active torsions:
REMARK  status: ('A' for Active; 'I' for Inactive)
REMARK    1  A    between atoms: O_1  and  C_3
REMARK    2  A    between atoms: C_2  and  C_3
REMARK                            x       y       z     vdW  Elec       q    Type
REMARK                         _______ _______ _______ _____ _____    ______ ____
ROOT
ATOM      1  C   UNL     1       4.493   9.205   1.358  0.00  0.00    +0.000 A 
ATOM      2  C   UNL     1       5.801   8.926   0.960  0.00  0.00    +0.000 A 
ATOM      3  C   UNL     1       3.955   8.574   2.480  0.00  0.00    +0.000 A 
ATOM      4  C   UNL     1       6.571   8.016   1.685  0.00  0.00    +0.000 A 
ATOM      5  C   UNL     1       4.725   7.665   3.205  0.00  0.00    +0.000 A 
ATOM      6  C   UNL     1       6.033   7.386   2.808  0.00  0.00    +0.000 A 
ATOM      7  H   UNL     1       6.231   9.412   0.090  0.00  0.00    +0.000 HD
ATOM      8  H   UNL     1       2.938   8.785   2.801  0.00  0.00    +0.000 HD
ATOM      9  H   UNL     1       7.589   7.799   1.376  0.00  0.00    +0.000 HD
ATOM     10  H   UNL     1       4.308   7.174   4.079  0.00  0.00    +0.000 HD
ATOM     11  H   UNL     1       6.633   6.678   3.372  0.00  0.00    +0.000 HD
ENDROOT
BRANCH   1  12
ATOM     12  C   UNL     1       3.670  10.178   0.582  0.00  0.00    +0.000 C 
ATOM     13  H   UNL     1       4.223  10.579  -0.273  0.00  0.00    +0.000 HD
ATOM     14  H   UNL     1       2.761   9.709   0.189  0.00  0.00    +0.000 HD
BRANCH  12  15
ATOM     15  O   UNL     1       3.292  11.256   1.429  0.00  0.00    +0.000 OA
ATOM     16  H   UNL     1       3.627  11.074   2.324  0.00  0.00    +0.000 HD
ENDBRANCH  12  15
ENDBRANCH   1  12
TORSDOF 2
ENDMDL
MODEL 6
REMARK VINA RESULT:    -4.416     13.424     13.770
REMARK INTER + INTRA:          -4.813
REMARK INTER:                  -4.797
REMARK INTRA:                  -0.017
REMARK UNBOUND:                -0.010
REMARK  Name = 244
REMARK  2 active torsions:
REMARK  status: ('A' for Active; 'I' for Inactive)
REMARK    1  A    between atoms: O_1  and  C_3
REMARK    2  A    between atoms: C_2  and  C_3
REMARK                            x       y       z     vdW  Elec       q    Type
REMARK                         _______ _______ _______ _____ _____    ______ ____
ROOT
ATOM      1  C   UNL     1       5.884  10.691  -0.175  0.00  0.00    +0.000 A 
ATOM      2  C   UNL     1       5.885   9.362   0.248  0.00  0.00    +0.000 A 
ATOM      3  C   UNL     1       6.911  11.163  -0.992  0.00  0.00    +0.000 A 
ATOM      4  C   UNL     1       6.913   8.505  -0.145  0.00  0.00    +0.000 A 
ATOM      5  C   UNL     1       7.940  10.306  -1.386  0.00  0.00    +0.000 A 
ATOM      6  C   UNL     1       7.940   8.977  -0.962  0.00  0.00    +0.000 A 
ATOM      7  H   UNL     1       5.090   8.982   0.883  0.00  0.00    +0.000 HD
ATOM      8  H   UNL     1       6.921  12.196  -1.331  0.00  0.00    +0.000 HD
ATOM      9  H   UNL     1       6.913   7.470   0.185  0.00  0.00    +0.000 HD
ATOM     10  H   UNL     1       8.739  10.672  -2.023  0.00  0.00    +0.000 HD
ATOM     11  H   UNL     1       8.740   8.310  -1.269  0.00  0.00    +0.000 HD
ENDROOT
BRANCH   1  12
ATOM     12  C   UNL     1       4.785  11.607   0.245  0.00  0.00    +0.000 C 
ATOM     13  H   UNL     1       4.036  11.723  -0.545  0.00  0.00    +0.000 HD
ATOM     14  H   UNL     1       4.264  11.227   1.131  0.00  0.00    +0.000 HD
BRANCH  12  15
ATOM     15  O   UNL     1       5.327  12.885   0.552  0.00  0.00    +0.000 OA
ATOM     16  H   UNL     1       5.130  13.486  -0.187  0.00  0.00    +0.000 HD
ENDBRANCH  12  15
ENDBRANCH   1  12
TORSDOF 2
ENDMDL
MODEL 7
REMARK VINA RESULT:    -4.388     27.030     28.434
REMARK INTER + INTRA:          -4.783
REMARK INTER:                  -4.766
REMARK INTRA:                  -0.017
REMARK UNBOUND:                -0.010
REMARK  Name = 244
REMARK  2 active torsions:
REMARK  status: ('A' for Active; 'I' for Inactive)
REMARK    1  A    between atoms: O_1  and  C_3
REMARK    2  A    between atoms: C_2  and  C_3
REMARK                            x       y       z     vdW  Elec       q    Type
REMARK                         _______ _______ _______ _____ _____    ______ ____
ROOT
ATOM      1  C   UNL     1     -22.350  -1.197   7.639  0.00  0.00    +0.000 A 
ATOM      2  C   UNL     1     -22.797  -1.761   6.444  0.00  0.00    +0.000 A 
ATOM      3  C   UNL     1     -21.073  -0.641   7.713  0.00  0.00    +0.000 A 
ATOM      4  C   UNL     1     -21.967  -1.768   5.323  0.00  0.00    +0.000 A 
ATOM      5  C   UNL     1     -20.243  -0.647   6.591  0.00  0.00    +0.000 A 
ATOM      6  C   UNL     1     -20.691  -1.210   5.397  0.00  0.00    +0.000 A 
ATOM      7  H   UNL     1     -23.790  -2.195   6.373  0.00  0.00    +0.000 HD
ATOM      8  H   UNL     1     -20.713  -0.197   8.638  0.00  0.00    +0.000 HD
ATOM      9  H   UNL     1     -22.316  -2.206   4.392  0.00  0.00    +0.000 HD
ATOM     10  H   UNL     1     -19.249  -0.214   6.648  0.00  0.00    +0.000 HD
ATOM     11  H   UNL     1     -20.044  -1.215   4.523  0.00  0.00    +0.000 HD
ENDROOT
BRANCH   1  12
ATOM     12  C   UNL     1     -23.237  -1.190   8.838  0.00  0.00    +0.000 C 
ATOM     13  H   UNL     1     -24.292  -1.274   8.556  0.00  0.00    +0.000 HD
ATOM     14  H   UNL     1     -23.013  -2.028   9.507  0.00  0.00    +0.000 HD
BRANCH  12  15
ATOM     15  O   UNL     1     -23.051   0.024   9.556  0.00  0.00    +0.000 OA
ATOM     16  H   UNL     1     -23.849   0.569   9.445  0.00  0.00    +0.000 HD
ENDBRANCH  12  15
ENDBRANCH   1  12
TORSDOF 2
ENDMDL
MODEL 8
REMARK VINA RESULT:    -4.359     12.966     13.117
REMARK INTER + INTRA:          -4.751
REMARK INTER:                  -4.735
REMARK INTRA:                  -0.016
REMARK UNBOUND:                -0.010
REMARK  Name = 244
REMARK  2 active torsions:
REMARK  status: ('A' for Active; 'I' for Inactive)
REMARK    1  A    between atoms: O_1  and  C_3
REMARK    2  A    between atoms: C_2  and  C_3
REMARK                            x       y       z     vdW  Elec       q    Type
REMARK                         _______ _______ _______ _____ _____    ______ ____
ROOT
ATOM      1  C   UNL     1       5.775  10.775  -0.265  0.00  0.00    +0.000 A 
ATOM      2  C   UNL     1       4.755  11.682   0.018  0.00  0.00    +0.000 A 
ATOM      3  C   UNL     1       5.693   9.464   0.204  0.00  0.00    +0.000 A 
ATOM      4  C   UNL     1       3.652  11.279   0.771  0.00  0.00    +0.000 A 
ATOM      5  C   UNL     1       4.589   9.060   0.957  0.00  0.00    +0.000 A 
ATOM      6  C   UNL     1       3.569   9.968   1.239  0.00  0.00    +0.000 A 
ATOM      7  H   UNL     1       4.807  12.705  -0.344  0.00  0.00    +0.000 HD
ATOM      8  H   UNL     1       6.480   8.746  -0.012  0.00  0.00    +0.000 HD
ATOM      9  H   UNL     1       2.857  11.986   0.990  0.00  0.00    +0.000 HD
ATOM     10  H   UNL     1       4.524   8.040   1.322  0.00  0.00    +0.000 HD
ATOM     11  H   UNL     1       2.710   9.654   1.825  0.00  0.00    +0.000 HD
ENDROOT
BRANCH   1  12
ATOM     12  C   UNL     1       6.955  11.206  -1.070  0.00  0.00    +0.000 C 
ATOM     13  H   UNL     1       6.763  12.151  -1.588  0.00  0.00    +0.000 HD
ATOM     14  H   UNL     1       7.837  11.356  -0.438  0.00  0.00    +0.000 HD
BRANCH  12  15
ATOM     15  O   UNL     1       7.256  10.208  -2.038  0.00  0.00    +0.000 OA
ATOM     16  H   UNL     1       7.170  10.604  -2.922  0.00  0.00    +0.000 HD
ENDBRANCH  12  15
ENDBRANCH   1  12
TORSDOF 2
ENDMDL
MODEL 9
REMARK VINA RESULT:    -4.263     13.199     13.376
REMARK INTER + INTRA:          -4.647
REMARK INTER:                  -4.626
REMARK INTRA:                  -0.021
REMARK UNBOUND:                -0.010
REMARK  Name = 244
REMARK  2 active torsions:
REMARK  status: ('A' for Active; 'I' for Inactive)
REMARK    1  A    between atoms: O_1  and  C_3
REMARK    2  A    between atoms: C_2  and  C_3
REMARK                            x       y       z     vdW  Elec       q    Type
REMARK                         _______ _______ _______ _____ _____    ______ ____
ROOT
ATOM      1  C   UNL     1       5.991   9.595   0.168  0.00  0.00    +0.000 A 
ATOM      2  C   UNL     1       4.934   8.983   0.842  0.00  0.00    +0.000 A 
ATOM      3  C   UNL     1       5.909  10.943  -0.179  0.00  0.00    +0.000 A 
ATOM      4  C   UNL     1       3.796   9.719   1.171  0.00  0.00    +0.000 A 
ATOM      5  C   UNL     1       4.771  11.680   0.150  0.00  0.00    +0.000 A 
ATOM      6  C   UNL     1       3.715  11.068   0.825  0.00  0.00    +0.000 A 
ATOM      7  H   UNL     1       4.987   7.934   1.120  0.00  0.00    +0.000 HD
ATOM      8  H   UNL     1       6.726  11.432  -0.703  0.00  0.00    +0.000 HD
ATOM      9  H   UNL     1       2.974   9.242   1.697  0.00  0.00    +0.000 HD
ATOM     10  H   UNL     1       4.707  12.730  -0.119  0.00  0.00    +0.000 HD
ATOM     11  H   UNL     1       2.829  11.642   1.081  0.00  0.00    +0.000 HD
ENDROOT
BRANCH   1  12
ATOM     12  C   UNL     1       7.208   8.807  -0.183  0.00  0.00    +0.000 C 
ATOM     13  H   UNL     1       7.525   8.998  -1.214  0.00  0.00    +0.000 HD
ATOM     14  H   UNL     1       8.051   9.062   0.468  0.00  0.00    +0.000 HD
BRANCH  12  15
ATOM     15  O   UNL     1       6.930   7.419  -0.040  0.00  0.00    +0.000 OA
ATOM     16  H   UNL     1       7.305   7.118   0.805  0.00  0.00    +0.000 HD
ENDBRANCH  12  15
ENDBRANCH   1  12
TORSDOF 2
ENDMDL
MODEL 10
REMARK VINA RESULT:    -4.263     25.973     26.929
REMARK INTER + INTRA:          -4.647
REMARK INTER:                  -4.637
REMARK INTRA:                  -0.010
REMARK UNBOUND:                -0.010
REMARK  Name = 244
REMARK  2 active torsions:
REMARK  status: ('A' for Active; 'I' for Inactive)
REMARK    1  A    between atoms: O_1  and  C_3
REMARK    2  A    between atoms: C_2  and  C_3
REMARK                            x       y       z     vdW  Elec       q    Type
REMARK                         _______ _______ _______ _____ _____    ______ ____
ROOT
ATOM      1  C   UNL     1     -21.112  -2.830   5.240  0.00  0.00    +0.000 A 
ATOM      2  C   UNL     1     -21.066  -1.729   4.385  0.00  0.00    +0.000 A 
ATOM      3  C   UNL     1     -20.772  -2.684   6.585  0.00  0.00    +0.000 A 
ATOM      4  C   UNL     1     -20.679  -0.481   4.875  0.00  0.00    +0.000 A 
ATOM      5  C   UNL     1     -20.386  -1.436   7.075  0.00  0.00    +0.000 A 
ATOM      6  C   UNL     1     -20.340  -0.335   6.220  0.00  0.00    +0.000 A 
ATOM      7  H   UNL     1     -21.330  -1.829   3.337  0.00  0.00    +0.000 HD
ATOM      8  H   UNL     1     -20.806  -3.534   7.262  0.00  0.00    +0.000 HD
ATOM      9  H   UNL     1     -20.643   0.376   4.209  0.00  0.00    +0.000 HD
ATOM     10  H   UNL     1     -20.122  -1.322   8.122  0.00  0.00    +0.000 HD
ATOM     11  H   UNL     1     -20.039   0.636   6.602  0.00  0.00    +0.000 HD
ENDROOT
BRANCH   1  12
ATOM     12  C   UNL     1     -21.526  -4.164   4.716  0.00  0.00    +0.000 C 
ATOM     13  H   UNL     1     -22.091  -4.730   5.464  0.00  0.00    +0.000 HD
ATOM     14  H   UNL     1     -22.166  -4.066   3.833  0.00  0.00    +0.000 HD
BRANCH  12  15
ATOM     15  O   UNL     1     -20.369  -4.909   4.356  0.00  0.00    +0.000 OA
ATOM     16  H   UNL     1     -20.650  -5.806   4.105  0.00  0.00    +0.000 HD
ENDBRANCH  12  15
ENDBRANCH   1  12
TORSDOF 2
ENDMDL
