MODEL 1
REMARK VINA RESULT:    -5.121      0.000      0.000
REMARK INTER + INTRA:          -6.474
REMARK INTER:                  -6.199
REMARK INTRA:                  -0.276
REMARK UNBOUND:                -0.306
REMARK  Name = 62098
REMARK  4 active torsions:
REMARK  status: ('A' for Active; 'I' for Inactive)
REMARK    1  A    between atoms: C_4  and  C_5
REMARK    2  A    between atoms: C_4  and  C_6
REMARK    3  A    between atoms: C_6  and  C_13
REMARK    4  A    between atoms: C_13  and  C_14
REMARK                            x       y       z     vdW  Elec       q    Type
REMARK                         _______ _______ _______ _____ _____    ______ ____
ROOT
ATOM      1  O   UNL     1     -20.952  -3.602   1.725  0.00  0.00    +0.000 OA
ATOM      2  O   UNL     1     -20.258  -5.569   2.932  0.00  0.00    +0.000 OA
ATOM      3  C   UNL     1     -20.779  -2.104   5.069  0.00  0.00    +0.000 A 
ATOM      4  C   UNL     1     -20.792  -3.363   3.055  0.00  0.00    +0.000 A 
ATOM      5  C   UNL     1     -20.993  -2.155   3.690  0.00  0.00    +0.000 A 
ATOM      6  C   UNL     1     -20.396  -4.487   3.744  0.00  0.00    +0.000 A 
ATOM      7  C   UNL     1     -20.375  -3.251   5.774  0.00  0.00    +0.000 A 
ATOM      8  C   UNL     1     -20.179  -4.462   5.106  0.00  0.00    +0.000 A 
ATOM      9  C   UNL     1     -20.611  -5.003   1.654  0.00  0.00    +0.000 C 
ATOM     10  H   UNL     1     -21.303  -1.278   3.131  0.00  0.00    +0.000 HD
ATOM     11  H   UNL     1     -20.208  -3.206   6.847  0.00  0.00    +0.000 HD
ATOM     12  H   UNL     1     -19.867  -5.350   5.646  0.00  0.00    +0.000 HD
ATOM     13  H   UNL     1     -19.762  -5.123   0.970  0.00  0.00    +0.000 HD
ATOM     14  H   UNL     1     -21.469  -5.552   1.251  0.00  0.00    +0.000 HD
ENDROOT
BRANCH   3  15
ATOM     15  C   UNL     1     -20.982  -0.821   5.803  0.00  0.00    +0.000 C 
ATOM     16  H   UNL     1     -20.239  -0.082   5.472  0.00  0.00    +0.000 HD
ATOM     17  H   UNL     1     -21.954  -0.388   5.533  0.00  0.00    +0.000 HD
BRANCH  15  18
ATOM     18  C   UNL     1     -20.895  -1.000   7.323  0.00  0.00    +0.000 C 
ATOM     19  H   UNL     1     -20.259  -0.220   7.759  0.00  0.00    +0.000 HD
ATOM     20  H   UNL     1     -20.447  -1.973   7.559  0.00  0.00    +0.000 HD
BRANCH  18  22
ATOM     21  O   UNL     1     -22.400  -0.486   9.143  0.00  0.00    +0.000 OA
ATOM     22  C   UNL     1     -22.248  -0.934   8.008  0.00  0.00    +0.000 C 
BRANCH  22  23
ATOM     23  C   UNL     1     -23.418  -1.456   7.216  0.00  0.00    +0.000 C 
ATOM     24  H   UNL     1     -23.317  -2.536   7.076  0.00  0.00    +0.000 HD
ATOM     25  H   UNL     1     -24.345  -1.256   7.757  0.00  0.00    +0.000 HD
ATOM     26  H   UNL     1     -23.442  -0.974   6.235  0.00  0.00    +0.000 HD
ENDBRANCH  22  23
ENDBRANCH  18  22
ENDBRANCH  15  18
ENDBRANCH   3  15
TORSDOF 4
ENDMDL
MODEL 2
REMARK VINA RESULT:    -5.075     18.052     18.963
REMARK INTER + INTRA:          -6.419
REMARK INTER:                  -6.260
REMARK INTRA:                  -0.159
REMARK UNBOUND:                -0.306
REMARK  Name = 62098
REMARK  4 active torsions:
REMARK  status: ('A' for Active; 'I' for Inactive)
REMARK    1  A    between atoms: C_4  and  C_5
REMARK    2  A    between atoms: C_4  and  C_6
REMARK    3  A    between atoms: C_6  and  C_13
REMARK    4  A    between atoms: C_13  and  C_14
REMARK                            x       y       z     vdW  Elec       q    Type
REMARK                         _______ _______ _______ _____ _____    ______ ____
ROOT
ATOM      1  O   UNL     1     -11.369  13.060   4.927  0.00  0.00    +0.000 OA
ATOM      2  O   UNL     1      -9.541  13.485   3.416  0.00  0.00    +0.000 OA
ATOM      3  C   UNL     1      -8.951  10.721   6.392  0.00  0.00    +0.000 A 
ATOM      4  C   UNL     1     -10.271  12.312   5.220  0.00  0.00    +0.000 A 
ATOM      5  C   UNL     1     -10.164  11.399   6.250  0.00  0.00    +0.000 A 
ATOM      6  C   UNL     1      -9.228  12.554   4.356  0.00  0.00    +0.000 A 
ATOM      7  C   UNL     1      -7.885  10.969   5.510  0.00  0.00    +0.000 A 
ATOM      8  C   UNL     1      -8.020  11.898   4.476  0.00  0.00    +0.000 A 
ATOM      9  C   UNL     1     -10.899  13.802   3.783  0.00  0.00    +0.000 C 
ATOM     10  H   UNL     1     -10.996  11.221   6.924  0.00  0.00    +0.000 HD
ATOM     11  H   UNL     1      -6.942  10.440   5.627  0.00  0.00    +0.000 HD
ATOM     12  H   UNL     1      -7.200  12.093   3.794  0.00  0.00    +0.000 HD
ATOM     13  H   UNL     1     -10.961  14.873   4.009  0.00  0.00    +0.000 HD
ATOM     14  H   UNL     1     -11.554  13.584   2.931  0.00  0.00    +0.000 HD
ENDROOT
BRANCH   3  15
ATOM     15  C   UNL     1      -8.784   9.725   7.491  0.00  0.00    +0.000 C 
ATOM     16  H   UNL     1      -9.678   9.091   7.556  0.00  0.00    +0.000 HD
ATOM     17  H   UNL     1      -7.963   9.038   7.247  0.00  0.00    +0.000 HD
BRANCH  15  18
ATOM     18  C   UNL     1      -8.521  10.393   8.845  0.00  0.00    +0.000 C 
ATOM     19  H   UNL     1      -9.470  10.634   9.338  0.00  0.00    +0.000 HD
ATOM     20  H   UNL     1      -7.967  11.328   8.699  0.00  0.00    +0.000 HD
BRANCH  18  22
ATOM     21  O   UNL     1      -6.525   9.718  10.030  0.00  0.00    +0.000 OA
ATOM     22  C   UNL     1      -7.715   9.520   9.791  0.00  0.00    +0.000 C 
BRANCH  22  23
ATOM     23  C   UNL     1      -8.457   8.377  10.433  0.00  0.00    +0.000 C 
ATOM     24  H   UNL     1      -8.134   8.263  11.471  0.00  0.00    +0.000 HD
ATOM     25  H   UNL     1      -9.530   8.581  10.417  0.00  0.00    +0.000 HD
ATOM     26  H   UNL     1      -8.242   7.451   9.892  0.00  0.00    +0.000 HD
ENDBRANCH  22  23
ENDBRANCH  18  22
ENDBRANCH  15  18
ENDBRANCH   3  15
TORSDOF 4
ENDMDL
MODEL 3
REMARK VINA RESULT:    -5.074     17.149     18.412
REMARK INTER + INTRA:          -6.418
REMARK INTER:                  -6.056
REMARK INTRA:                  -0.362
REMARK UNBOUND:                -0.306
REMARK  Name = 62098
REMARK  4 active torsions:
REMARK  status: ('A' for Active; 'I' for Inactive)
REMARK    1  A    between atoms: C_4  and  C_5
REMARK    2  A    between atoms: C_4  and  C_6
REMARK    3  A    between atoms: C_6  and  C_13
REMARK    4  A    between atoms: C_13  and  C_14
REMARK                            x       y       z     vdW  Elec       q    Type
REMARK                         _______ _______ _______ _____ _____    ______ ____
ROOT
ATOM      1  O   UNL     1     -10.460  -9.417  14.553  0.00  0.00    +0.000 OA
ATOM      2  O   UNL     1      -8.438 -10.326  13.607  0.00  0.00    +0.000 OA
ATOM      3  C   UNL     1      -9.759 -11.903  17.159  0.00  0.00    +0.000 A 
ATOM      4  C   UNL     1      -9.928 -10.407  15.321  0.00  0.00    +0.000 A 
ATOM      5  C   UNL     1     -10.448 -10.875  16.511  0.00  0.00    +0.000 A 
ATOM      6  C   UNL     1      -8.774 -10.925  14.781  0.00  0.00    +0.000 A 
ATOM      7  C   UNL     1      -8.579 -12.433  16.607  0.00  0.00    +0.000 A 
ATOM      8  C   UNL     1      -8.075 -11.941  15.401  0.00  0.00    +0.000 A 
ATOM      9  C   UNL     1      -9.509  -9.371  13.468  0.00  0.00    +0.000 C 
ATOM     10  H   UNL     1     -11.358 -10.454  16.924  0.00  0.00    +0.000 HD
ATOM     11  H   UNL     1      -8.046 -13.232  17.117  0.00  0.00    +0.000 HD
ATOM     12  H   UNL     1      -7.166 -12.346  14.972  0.00  0.00    +0.000 HD
ATOM     13  H   UNL     1      -9.079  -8.364  13.422  0.00  0.00    +0.000 HD
ATOM     14  H   UNL     1     -10.039  -9.570  12.529  0.00  0.00    +0.000 HD
ENDROOT
BRANCH   3  15
ATOM     15  C   UNL     1     -10.278 -12.444  18.449  0.00  0.00    +0.000 C 
ATOM     16  H   UNL     1      -9.769 -13.387  18.688  0.00  0.00    +0.000 HD
ATOM     17  H   UNL     1     -10.017 -11.763  19.269  0.00  0.00    +0.000 HD
BRANCH  15  18
ATOM     18  C   UNL     1     -11.794 -12.665  18.418  0.00  0.00    +0.000 C 
ATOM     19  H   UNL     1     -12.266 -11.950  17.731  0.00  0.00    +0.000 HD
ATOM     20  H   UNL     1     -12.217 -12.503  19.417  0.00  0.00    +0.000 HD
BRANCH  18  22
ATOM     21  O   UNL     1     -12.091 -15.047  18.704  0.00  0.00    +0.000 OA
ATOM     22  C   UNL     1     -12.183 -14.063  17.971  0.00  0.00    +0.000 C 
BRANCH  22  23
ATOM     23  C   UNL     1     -12.693 -14.191  16.559  0.00  0.00    +0.000 C 
ATOM     24  H   UNL     1     -13.323 -13.331  16.315  0.00  0.00    +0.000 HD
ATOM     25  H   UNL     1     -11.850 -14.218  15.866  0.00  0.00    +0.000 HD
ATOM     26  H   UNL     1     -13.288 -15.103  16.466  0.00  0.00    +0.000 HD
ENDBRANCH  22  23
ENDBRANCH  18  22
ENDBRANCH  15  18
ENDBRANCH   3  15
TORSDOF 4
ENDMDL
MODEL 4
REMARK VINA RESULT:    -4.962     18.311     19.887
REMARK INTER + INTRA:          -6.283
REMARK INTER:                  -5.965
REMARK INTRA:                  -0.318
REMARK UNBOUND:                -0.306
REMARK  Name = 62098
REMARK  4 active torsions:
REMARK  status: ('A' for Active; 'I' for Inactive)
REMARK    1  A    between atoms: C_4  and  C_5
REMARK    2  A    between atoms: C_4  and  C_6
REMARK    3  A    between atoms: C_6  and  C_13
REMARK    4  A    between atoms: C_13  and  C_14
REMARK                            x       y       z     vdW  Elec       q    Type
REMARK                         _______ _______ _______ _____ _____    ______ ____
ROOT
ATOM      1  O   UNL     1      -7.223  14.277   7.364  0.00  0.00    +0.000 OA
ATOM      2  O   UNL     1      -6.580  14.166   5.044  0.00  0.00    +0.000 OA
ATOM      3  C   UNL     1      -8.429  10.882   6.669  0.00  0.00    +0.000 A 
ATOM      4  C   UNL     1      -7.547  13.085   6.793  0.00  0.00    +0.000 A 
ATOM      5  C   UNL     1      -8.175  12.029   7.424  0.00  0.00    +0.000 A 
ATOM      6  C   UNL     1      -7.181  13.022   5.468  0.00  0.00    +0.000 A 
ATOM      7  C   UNL     1      -8.054  10.817   5.316  0.00  0.00    +0.000 A 
ATOM      8  C   UNL     1      -7.420  11.900   4.702  0.00  0.00    +0.000 A 
ATOM      9  C   UNL     1      -6.609  14.957   6.249  0.00  0.00    +0.000 C 
ATOM     10  H   UNL     1      -8.456  12.094   8.470  0.00  0.00    +0.000 HD
ATOM     11  H   UNL     1      -8.252   9.920   4.734  0.00  0.00    +0.000 HD
ATOM     12  H   UNL     1      -7.129  11.855   3.658  0.00  0.00    +0.000 HD
ATOM     13  H   UNL     1      -5.580  15.220   6.521  0.00  0.00    +0.000 HD
ATOM     14  H   UNL     1      -7.167  15.879   6.051  0.00  0.00    +0.000 HD
ENDROOT
BRANCH   3  15
ATOM     15  C   UNL     1      -9.103   9.712   7.305  0.00  0.00    +0.000 C 
ATOM     16  H   UNL     1     -10.092  10.011   7.678  0.00  0.00    +0.000 HD
ATOM     17  H   UNL     1      -9.305   8.943   6.548  0.00  0.00    +0.000 HD
BRANCH  15  18
ATOM     18  C   UNL     1      -8.275   9.114   8.448  0.00  0.00    +0.000 C 
ATOM     19  H   UNL     1      -7.367   9.709   8.607  0.00  0.00    +0.000 HD
ATOM     20  H   UNL     1      -7.970   8.092   8.193  0.00  0.00    +0.000 HD
BRANCH  18  22
ATOM     21  O   UNL     1      -8.650   8.391  10.724  0.00  0.00    +0.000 OA
ATOM     22  C   UNL     1      -9.030   9.059   9.763  0.00  0.00    +0.000 C 
BRANCH  22  23
ATOM     23  C   UNL     1     -10.296   9.874   9.837  0.00  0.00    +0.000 C 
ATOM     24  H   UNL     1     -10.075  10.862  10.251  0.00  0.00    +0.000 HD
ATOM     25  H   UNL     1     -10.712   9.996   8.835  0.00  0.00    +0.000 HD
ATOM     26  H   UNL     1     -11.017   9.372  10.487  0.00  0.00    +0.000 HD
ENDBRANCH  22  23
ENDBRANCH  18  22
ENDBRANCH  15  18
ENDBRANCH   3  15
TORSDOF 4
ENDMDL
MODEL 5
REMARK VINA RESULT:    -4.855     31.555     32.434
REMARK INTER + INTRA:          -6.154
REMARK INTER:                  -5.947
REMARK INTRA:                  -0.207
REMARK UNBOUND:                -0.306
REMARK  Name = 62098
REMARK  4 active torsions:
REMARK  status: ('A' for Active; 'I' for Inactive)
REMARK    1  A    between atoms: C_4  and  C_5
REMARK    2  A    between atoms: C_4  and  C_6
REMARK    3  A    between atoms: C_6  and  C_13
REMARK    4  A    between atoms: C_13  and  C_14
REMARK                            x       y       z     vdW  Elec       q    Type
REMARK                         _______ _______ _______ _____ _____    ______ ____
ROOT
ATOM      1  O   UNL     1      10.522  12.287   5.328  0.00  0.00    +0.000 OA
ATOM      2  O   UNL     1       9.634  12.967   7.463  0.00  0.00    +0.000 OA
ATOM      3  C   UNL     1       8.026   9.625   5.706  0.00  0.00    +0.000 A 
ATOM      4  C   UNL     1       9.530  11.463   5.763  0.00  0.00    +0.000 A 
ATOM      5  C   UNL     1       9.052  10.352   5.098  0.00  0.00    +0.000 A 
ATOM      6  C   UNL     1       9.024  11.851   6.982  0.00  0.00    +0.000 A 
ATOM      7  C   UNL     1       7.508  10.021   6.951  0.00  0.00    +0.000 A 
ATOM      8  C   UNL     1       8.011  11.150   7.603  0.00  0.00    +0.000 A 
ATOM      9  C   UNL     1      10.582  13.239   6.411  0.00  0.00    +0.000 C 
ATOM     10  H   UNL     1       9.461  10.061   4.136  0.00  0.00    +0.000 HD
ATOM     11  H   UNL     1       6.708   9.453   7.419  0.00  0.00    +0.000 HD
ATOM     12  H   UNL     1       7.614  11.460   8.563  0.00  0.00    +0.000 HD
ATOM     13  H   UNL     1      10.384  14.240   6.010  0.00  0.00    +0.000 HD
ATOM     14  H   UNL     1      11.593  13.224   6.836  0.00  0.00    +0.000 HD
ENDROOT
BRANCH   3  15
ATOM     15  C   UNL     1       7.473   8.416   5.028  0.00  0.00    +0.000 C 
ATOM     16  H   UNL     1       8.062   7.532   5.305  0.00  0.00    +0.000 HD
ATOM     17  H   UNL     1       6.460   8.213   5.399  0.00  0.00    +0.000 HD
BRANCH  15  18
ATOM     18  C   UNL     1       7.448   8.566   3.502  0.00  0.00    +0.000 C 
ATOM     19  H   UNL     1       8.333   8.091   3.062  0.00  0.00    +0.000 HD
ATOM     20  H   UNL     1       7.463   9.629   3.231  0.00  0.00    +0.000 HD
BRANCH  18  22
ATOM     21  O   UNL     1       5.717   8.371   1.826  0.00  0.00    +0.000 OA
ATOM     22  C   UNL     1       6.220   7.943   2.864  0.00  0.00    +0.000 C 
BRANCH  22  23
ATOM     23  C   UNL     1       5.633   6.752   3.577  0.00  0.00    +0.000 C 
ATOM     24  H   UNL     1       4.574   6.931   3.785  0.00  0.00    +0.000 HD
ATOM     25  H   UNL     1       5.724   5.866   2.946  0.00  0.00    +0.000 HD
ATOM     26  H   UNL     1       6.158   6.598   4.524  0.00  0.00    +0.000 HD
ENDBRANCH  22  23
ENDBRANCH  18  22
ENDBRANCH  15  18
ENDBRANCH   3  15
TORSDOF 4
ENDMDL
MODEL 6
REMARK VINA RESULT:    -4.824     17.514     19.280
REMARK INTER + INTRA:          -6.117
REMARK INTER:                  -5.821
REMARK INTRA:                  -0.296
REMARK UNBOUND:                -0.306
REMARK  Name = 62098
REMARK  4 active torsions:
REMARK  status: ('A' for Active; 'I' for Inactive)
REMARK    1  A    between atoms: C_4  and  C_5
REMARK    2  A    between atoms: C_4  and  C_6
REMARK    3  A    between atoms: C_6  and  C_13
REMARK    4  A    between atoms: C_13  and  C_14
REMARK                            x       y       z     vdW  Elec       q    Type
REMARK                         _______ _______ _______ _____ _____    ______ ____
ROOT
ATOM      1  O   UNL     1      -8.083   9.802   9.314  0.00  0.00    +0.000 OA
ATOM      2  O   UNL     1     -10.420   9.330   9.669  0.00  0.00    +0.000 OA
ATOM      3  C   UNL     1      -9.352  11.129   6.138  0.00  0.00    +0.000 A 
ATOM      4  C   UNL     1      -8.856  10.196   8.265  0.00  0.00    +0.000 A 
ATOM      5  C   UNL     1      -8.404  10.797   7.108  0.00  0.00    +0.000 A 
ATOM      6  C   UNL     1     -10.190   9.925   8.468  0.00  0.00    +0.000 A 
ATOM      7  C   UNL     1     -10.715  10.853   6.345  0.00  0.00    +0.000 A 
ATOM      8  C   UNL     1     -11.145  10.243   7.525  0.00  0.00    +0.000 A 
ATOM      9  C   UNL     1      -9.081   9.254  10.200  0.00  0.00    +0.000 C 
ATOM     10  H   UNL     1      -7.349  11.005   6.965  0.00  0.00    +0.000 HD
ATOM     11  H   UNL     1     -11.449  11.116   5.586  0.00  0.00    +0.000 HD
ATOM     12  H   UNL     1     -12.195  10.029   7.689  0.00  0.00    +0.000 HD
ATOM     13  H   UNL     1      -9.049   9.804  11.148  0.00  0.00    +0.000 HD
ATOM     14  H   UNL     1      -8.839   8.203  10.395  0.00  0.00    +0.000 HD
ENDROOT
BRANCH   3  15
ATOM     15  C   UNL     1      -8.916  11.783   4.869  0.00  0.00    +0.000 C 
ATOM     16  H   UNL     1      -9.313  11.228   4.009  0.00  0.00    +0.000 HD
ATOM     17  H   UNL     1      -9.363  12.783   4.794  0.00  0.00    +0.000 HD
BRANCH  15  18
ATOM     18  C   UNL     1      -7.390  11.884   4.763  0.00  0.00    +0.000 C 
ATOM     19  H   UNL     1      -7.055  11.516   3.785  0.00  0.00    +0.000 HD
ATOM     20  H   UNL     1      -6.919  11.266   5.538  0.00  0.00    +0.000 HD
BRANCH  18  22
ATOM     21  O   UNL     1      -5.718  13.559   5.252  0.00  0.00    +0.000 OA
ATOM     22  C   UNL     1      -6.876  13.303   4.926  0.00  0.00    +0.000 C 
BRANCH  22  23
ATOM     23  C   UNL     1      -7.872  14.404   4.668  0.00  0.00    +0.000 C 
ATOM     24  H   UNL     1      -8.664  14.038   4.009  0.00  0.00    +0.000 HD
ATOM     25  H   UNL     1      -8.318  14.723   5.613  0.00  0.00    +0.000 HD
ATOM     26  H   UNL     1      -7.370  15.246   4.184  0.00  0.00    +0.000 HD
ENDBRANCH  22  23
ENDBRANCH  18  22
ENDBRANCH  15  18
ENDBRANCH   3  15
TORSDOF 4
ENDMDL
MODEL 7
REMARK VINA RESULT:    -4.811     27.763     28.979
REMARK INTER + INTRA:          -6.101
REMARK INTER:                  -5.777
REMARK INTRA:                  -0.324
REMARK UNBOUND:                -0.306
REMARK  Name = 62098
REMARK  4 active torsions:
REMARK  status: ('A' for Active; 'I' for Inactive)
REMARK    1  A    between atoms: C_4  and  C_5
REMARK    2  A    between atoms: C_4  and  C_6
REMARK    3  A    between atoms: C_6  and  C_13
REMARK    4  A    between atoms: C_13  and  C_14
REMARK                            x       y       z     vdW  Elec       q    Type
REMARK                         _______ _______ _______ _____ _____    ______ ____
ROOT
ATOM      1  O   UNL     1      -1.513  10.458 -15.918  0.00  0.00    +0.000 OA
ATOM      2  O   UNL     1       0.608   9.409 -15.462  0.00  0.00    +0.000 OA
ATOM      3  C   UNL     1      -2.122   9.601 -12.403  0.00  0.00    +0.000 A 
ATOM      4  C   UNL     1      -1.421  10.013 -14.635  0.00  0.00    +0.000 A 
ATOM      5  C   UNL     1      -2.400  10.122 -13.669  0.00  0.00    +0.000 A 
ATOM      6  C   UNL     1      -0.210   9.414 -14.375  0.00  0.00    +0.000 A 
ATOM      7  C   UNL     1      -0.884   8.990 -12.137  0.00  0.00    +0.000 A 
ATOM      8  C   UNL     1       0.089   8.892 -13.133  0.00  0.00    +0.000 A 
ATOM      9  C   UNL     1      -0.222  10.072 -16.436  0.00  0.00    +0.000 C 
ATOM     10  H   UNL     1      -3.349  10.599 -13.890  0.00  0.00    +0.000 HD
ATOM     11  H   UNL     1      -0.672   8.588 -11.149  0.00  0.00    +0.000 HD
ATOM     12  H   UNL     1       1.045   8.421 -12.933  0.00  0.00    +0.000 HD
ATOM     13  H   UNL     1       0.297  10.971 -16.788  0.00  0.00    +0.000 HD
ATOM     14  H   UNL     1      -0.373   9.397 -17.287  0.00  0.00    +0.000 HD
ENDROOT
BRANCH   3  15
ATOM     15  C   UNL     1      -3.146   9.695 -11.322  0.00  0.00    +0.000 C 
ATOM     16  H   UNL     1      -3.766  10.589 -11.474  0.00  0.00    +0.000 HD
ATOM     17  H   UNL     1      -3.843   8.850 -11.396  0.00  0.00    +0.000 HD
BRANCH  15  18
ATOM     18  C   UNL     1      -2.516   9.731  -9.926  0.00  0.00    +0.000 C 
ATOM     19  H   UNL     1      -2.794  10.658  -9.410  0.00  0.00    +0.000 HD
ATOM     20  H   UNL     1      -1.423   9.703 -10.008  0.00  0.00    +0.000 HD
BRANCH  18  22
ATOM     21  O   UNL     1      -3.186   8.687  -7.851  0.00  0.00    +0.000 OA
ATOM     22  C   UNL     1      -2.944   8.566  -9.051  0.00  0.00    +0.000 C 
BRANCH  22  23
ATOM     23  C   UNL     1      -3.058   7.229  -9.735  0.00  0.00    +0.000 C 
ATOM     24  H   UNL     1      -4.104   7.030  -9.986  0.00  0.00    +0.000 HD
ATOM     25  H   UNL     1      -2.470   7.237 -10.655  0.00  0.00    +0.000 HD
ATOM     26  H   UNL     1      -2.700   6.442  -9.065  0.00  0.00    +0.000 HD
ENDBRANCH  22  23
ENDBRANCH  18  22
ENDBRANCH  15  18
ENDBRANCH   3  15
TORSDOF 4
ENDMDL
MODEL 8
REMARK VINA RESULT:    -4.772     15.670     16.758
REMARK INTER + INTRA:          -6.054
REMARK INTER:                  -5.820
REMARK INTRA:                  -0.234
REMARK UNBOUND:                -0.306
REMARK  Name = 62098
REMARK  4 active torsions:
REMARK  status: ('A' for Active; 'I' for Inactive)
REMARK    1  A    between atoms: C_4  and  C_5
REMARK    2  A    between atoms: C_4  and  C_6
REMARK    3  A    between atoms: C_6  and  C_13
REMARK    4  A    between atoms: C_13  and  C_14
REMARK                            x       y       z     vdW  Elec       q    Type
REMARK                         _______ _______ _______ _____ _____    ______ ____
ROOT
ATOM      1  O   UNL     1      -8.392 -10.530  15.064  0.00  0.00    +0.000 OA
ATOM      2  O   UNL     1      -8.568 -12.344  16.640  0.00  0.00    +0.000 OA
ATOM      3  C   UNL     1     -11.909 -10.049  15.994  0.00  0.00    +0.000 A 
ATOM      4  C   UNL     1      -9.635 -10.621  15.612  0.00  0.00    +0.000 A 
ATOM      5  C   UNL     1     -10.706  -9.797  15.330  0.00  0.00    +0.000 A 
ATOM      6  C   UNL     1      -9.735 -11.657  16.511  0.00  0.00    +0.000 A 
ATOM      7  C   UNL     1     -12.011 -11.108  16.913  0.00  0.00    +0.000 A 
ATOM      8  C   UNL     1     -10.912 -11.926  17.179  0.00  0.00    +0.000 A 
ATOM      9  C   UNL     1      -7.721 -11.625  15.721  0.00  0.00    +0.000 C 
ATOM     10  H   UNL     1     -10.610  -8.983  14.619  0.00  0.00    +0.000 HD
ATOM     11  H   UNL     1     -12.950 -11.298  17.428  0.00  0.00    +0.000 HD
ATOM     12  H   UNL     1     -10.986 -12.744  17.888  0.00  0.00    +0.000 HD
ATOM     13  H   UNL     1      -6.861 -11.229  16.273  0.00  0.00    +0.000 HD
ATOM     14  H   UNL     1      -7.358 -12.323  14.957  0.00  0.00    +0.000 HD
ENDROOT
BRANCH   3  15
ATOM     15  C   UNL     1     -13.097  -9.186  15.726  0.00  0.00    +0.000 C 
ATOM     16  H   UNL     1     -12.849  -8.442  14.958  0.00  0.00    +0.000 HD
ATOM     17  H   UNL     1     -13.903  -9.790  15.288  0.00  0.00    +0.000 HD
BRANCH  15  18
ATOM     18  C   UNL     1     -13.600  -8.482  16.990  0.00  0.00    +0.000 C 
ATOM     19  H   UNL     1     -13.010  -8.799  17.859  0.00  0.00    +0.000 HD
ATOM     20  H   UNL     1     -14.648  -8.750  17.176  0.00  0.00    +0.000 HD
BRANCH  18  22
ATOM     21  O   UNL     1     -12.945  -6.281  17.744  0.00  0.00    +0.000 OA
ATOM     22  C   UNL     1     -13.518  -6.969  16.901  0.00  0.00    +0.000 C 
BRANCH  22  23
ATOM     23  C   UNL     1     -14.189  -6.338  15.708  0.00  0.00    +0.000 C 
ATOM     24  H   UNL     1     -13.936  -6.897  14.803  0.00  0.00    +0.000 HD
ATOM     25  H   UNL     1     -15.272  -6.358  15.844  0.00  0.00    +0.000 HD
ATOM     26  H   UNL     1     -13.841  -5.307  15.595  0.00  0.00    +0.000 HD
ENDBRANCH  22  23
ENDBRANCH  18  22
ENDBRANCH  15  18
ENDBRANCH   3  15
TORSDOF 4
ENDMDL
MODEL 9
REMARK VINA RESULT:    -4.712     28.600     30.674
REMARK INTER + INTRA:          -5.982
REMARK INTER:                  -5.674
REMARK INTRA:                  -0.308
REMARK UNBOUND:                -0.306
REMARK  Name = 62098
REMARK  4 active torsions:
REMARK  status: ('A' for Active; 'I' for Inactive)
REMARK    1  A    between atoms: C_4  and  C_5
REMARK    2  A    between atoms: C_4  and  C_6
REMARK    3  A    between atoms: C_6  and  C_13
REMARK    4  A    between atoms: C_13  and  C_14
REMARK                            x       y       z     vdW  Elec       q    Type
REMARK                         _______ _______ _______ _____ _____    ______ ____
ROOT
ATOM      1  O   UNL     1       4.095  -3.749 -14.757  0.00  0.00    +0.000 OA
ATOM      2  O   UNL     1       5.539  -2.435 -16.170  0.00  0.00    +0.000 OA
ATOM      3  C   UNL     1       2.994  -0.428 -13.653  0.00  0.00    +0.000 A 
ATOM      4  C   UNL     1       3.919  -2.411 -14.577  0.00  0.00    +0.000 A 
ATOM      5  C   UNL     1       3.031  -1.823 -13.699  0.00  0.00    +0.000 A 
ATOM      6  C   UNL     1       4.744  -1.662 -15.384  0.00  0.00    +0.000 A 
ATOM      7  C   UNL     1       3.837   0.338 -14.477  0.00  0.00    +0.000 A 
ATOM      8  C   UNL     1       4.726  -0.282 -15.357  0.00  0.00    +0.000 A 
ATOM      9  C   UNL     1       5.124  -3.756 -15.769  0.00  0.00    +0.000 C 
ATOM     10  H   UNL     1       2.386  -2.429 -13.071  0.00  0.00    +0.000 HD
ATOM     11  H   UNL     1       3.802   1.425 -14.438  0.00  0.00    +0.000 HD
ATOM     12  H   UNL     1       5.378   0.304 -15.994  0.00  0.00    +0.000 HD
ATOM     13  H   UNL     1       4.745  -4.288 -16.650  0.00  0.00    +0.000 HD
ATOM     14  H   UNL     1       5.994  -4.296 -15.380  0.00  0.00    +0.000 HD
ENDROOT
BRANCH   3  15
ATOM     15  C   UNL     1       2.051   0.258 -12.721  0.00  0.00    +0.000 C 
ATOM     16  H   UNL     1       2.076  -0.234 -11.740  0.00  0.00    +0.000 HD
ATOM     17  H   UNL     1       2.394   1.284 -12.535  0.00  0.00    +0.000 HD
BRANCH  15  18
ATOM     18  C   UNL     1       0.616   0.276 -13.258  0.00  0.00    +0.000 C 
ATOM     19  H   UNL     1       0.593  -0.098 -14.289  0.00  0.00    +0.000 HD
ATOM     20  H   UNL     1       0.231   1.304 -13.262  0.00  0.00    +0.000 HD
BRANCH  18  22
ATOM     21  O   UNL     1      -0.849  -0.176 -11.388  0.00  0.00    +0.000 OA
ATOM     22  C   UNL     1      -0.338  -0.572 -12.435  0.00  0.00    +0.000 C 
BRANCH  22  23
ATOM     23  C   UNL     1      -0.631  -1.949 -12.971  0.00  0.00    +0.000 C 
ATOM     24  H   UNL     1       0.234  -2.321 -13.527  0.00  0.00    +0.000 HD
ATOM     25  H   UNL     1      -0.836  -2.629 -12.141  0.00  0.00    +0.000 HD
ATOM     26  H   UNL     1      -1.492  -1.905 -13.644  0.00  0.00    +0.000 HD
ENDBRANCH  22  23
ENDBRANCH  18  22
ENDBRANCH  15  18
ENDBRANCH   3  15
TORSDOF 4
ENDMDL
MODEL 10
REMARK VINA RESULT:    -4.627     27.296     28.711
REMARK INTER + INTRA:          -5.880
REMARK INTER:                  -5.574
REMARK INTRA:                  -0.306
REMARK UNBOUND:                -0.306
REMARK  Name = 62098
REMARK  4 active torsions:
REMARK  status: ('A' for Active; 'I' for Inactive)
REMARK    1  A    between atoms: C_4  and  C_5
REMARK    2  A    between atoms: C_4  and  C_6
REMARK    3  A    between atoms: C_6  and  C_13
REMARK    4  A    between atoms: C_13  and  C_14
REMARK                            x       y       z     vdW  Elec       q    Type
REMARK                         _______ _______ _______ _____ _____    ______ ____
ROOT
ATOM      1  O   UNL     1       0.059  10.817 -13.622  0.00  0.00    +0.000 OA
ATOM      2  O   UNL     1      -0.595  10.057 -15.814  0.00  0.00    +0.000 OA
ATOM      3  C   UNL     1      -1.451   7.626 -12.619  0.00  0.00    +0.000 A 
ATOM      4  C   UNL     1      -0.556   9.603 -13.587  0.00  0.00    +0.000 A 
ATOM      5  C   UNL     1      -0.804   8.853 -12.455  0.00  0.00    +0.000 A 
ATOM      6  C   UNL     1      -0.930   9.170 -14.839  0.00  0.00    +0.000 A 
ATOM      7  C   UNL     1      -1.832   7.184 -13.898  0.00  0.00    +0.000 A 
ATOM      8  C   UNL     1      -1.570   7.963 -15.027  0.00  0.00    +0.000 A 
ATOM      9  C   UNL     1       0.031  11.098 -15.037  0.00  0.00    +0.000 C 
ATOM     10  H   UNL     1      -0.501   9.208 -11.476  0.00  0.00    +0.000 HD
ATOM     11  H   UNL     1      -2.334   6.227 -14.020  0.00  0.00    +0.000 HD
ATOM     12  H   UNL     1      -1.862   7.625 -16.015  0.00  0.00    +0.000 HD
ATOM     13  H   UNL     1       1.061  11.228 -15.389  0.00  0.00    +0.000 HD
ATOM     14  H   UNL     1      -0.516  12.034 -15.197  0.00  0.00    +0.000 HD
ENDROOT
BRANCH   3  15
ATOM     15  C   UNL     1      -1.741   6.777 -11.427  0.00  0.00    +0.000 C 
ATOM     16  H   UNL     1      -2.299   5.883 -11.735  0.00  0.00    +0.000 HD
ATOM     17  H   UNL     1      -0.801   6.396 -11.006  0.00  0.00    +0.000 HD
BRANCH  15  18
ATOM     18  C   UNL     1      -2.526   7.535 -10.351  0.00  0.00    +0.000 C 
ATOM     19  H   UNL     1      -2.736   8.557 -10.687  0.00  0.00    +0.000 HD
ATOM     20  H   UNL     1      -1.933   7.596  -9.430  0.00  0.00    +0.000 HD
BRANCH  18  22
ATOM     21  O   UNL     1      -4.119   6.468  -8.878  0.00  0.00    +0.000 OA
ATOM     22  C   UNL     1      -3.850   6.877 -10.007  0.00  0.00    +0.000 C 
BRANCH  22  23
ATOM     23  C   UNL     1      -4.837   6.742 -11.137  0.00  0.00    +0.000 C 
ATOM     24  H   UNL     1      -4.879   5.701 -11.469  0.00  0.00    +0.000 HD
ATOM     25  H   UNL     1      -5.829   7.043 -10.795  0.00  0.00    +0.000 HD
ATOM     26  H   UNL     1      -4.521   7.368 -11.976  0.00  0.00    +0.000 HD
ENDBRANCH  22  23
ENDBRANCH  18  22
ENDBRANCH  15  18
ENDBRANCH   3  15
TORSDOF 4
ENDMDL
