MODEL 1
REMARK VINA RESULT:    -3.567      0.000      0.000
REMARK INTER + INTRA:          -4.534
REMARK INTER:                  -4.436
REMARK INTRA:                  -0.098
REMARK UNBOUND:                -0.133
REMARK  Name = 7997
REMARK  5 active torsions:
REMARK  status: ('A' for Active; 'I' for Inactive)
REMARK    1  A    between atoms: O_1  and  C_4
REMARK    2  A    between atoms: O_1  and  C_6
REMARK    3  A    between atoms: C_3  and  C_4
REMARK    4  A    between atoms: C_3  and  C_5
REMARK    5  A    between atoms: C_6  and  C_7
REMARK                            x       y       z     vdW  Elec       q    Type
REMARK                         _______ _______ _______ _____ _____    ______ ____
ROOT
ATOM      1  C   UNL     1       3.642   9.348   1.130  0.00  0.00    +0.000 C 
ATOM      2  H   UNL     1       4.450   9.242   0.395  0.00  0.00    +0.000 HD
ATOM      3  H   UNL     1       2.811   8.691   0.846  0.00  0.00    +0.000 HD
ENDROOT
BRANCH   1   4
ATOM      4  C   UNL     1       4.146   8.980   2.516  0.00  0.00    +0.000 C 
ATOM      5  H   UNL     1       4.105   9.860   3.169  0.00  0.00    +0.000 HD
ATOM      6  H   UNL     1       3.474   8.239   2.968  0.00  0.00    +0.000 HD
BRANCH   4   7
ATOM      7  C   UNL     1       5.562   8.434   2.477  0.00  0.00    +0.000 C 
ATOM      8  H   UNL     1       6.257   9.110   2.984  0.00  0.00    +0.000 HD
ATOM      9  H   UNL     1       5.609   7.461   2.975  0.00  0.00    +0.000 HD
ATOM     10  H   UNL     1       5.903   8.303   1.444  0.00  0.00    +0.000 HD
ENDBRANCH   4   7
ENDBRANCH   1   4
BRANCH   1  11
ATOM     11  O   UNL     1       3.194  10.697   1.147  0.00  0.00    +0.000 OA
BRANCH  11  13
ATOM     12  O   UNL     1       4.645  12.399   0.569  0.00  0.00    +0.000 OA
ATOM     13  C   UNL     1       3.822  11.544   0.274  0.00  0.00    +0.000 C 
BRANCH  13  14
ATOM     14  C   UNL     1       3.355  11.272  -1.123  0.00  0.00    +0.000 C 
ATOM     15  H   UNL     1       2.315  11.588  -1.235  0.00  0.00    +0.000 HD
ATOM     16  H   UNL     1       3.461  10.209  -1.351  0.00  0.00    +0.000 HD
ATOM     17  H   UNL     1       3.969  11.842  -1.828  0.00  0.00    +0.000 HD
ENDBRANCH  13  14
ENDBRANCH  11  13
ENDBRANCH   1  11
TORSDOF 5
ENDMDL
MODEL 2
REMARK VINA RESULT:    -3.504      2.490      3.124
REMARK INTER + INTRA:          -4.457
REMARK INTER:                  -4.356
REMARK INTRA:                  -0.100
REMARK UNBOUND:                -0.133
REMARK  Name = 7997
REMARK  5 active torsions:
REMARK  status: ('A' for Active; 'I' for Inactive)
REMARK    1  A    between atoms: O_1  and  C_4
REMARK    2  A    between atoms: O_1  and  C_6
REMARK    3  A    between atoms: C_3  and  C_4
REMARK    4  A    between atoms: C_3  and  C_5
REMARK    5  A    between atoms: C_6  and  C_7
REMARK                            x       y       z     vdW  Elec       q    Type
REMARK                         _______ _______ _______ _____ _____    ______ ____
ROOT
ATOM      1  C   UNL     1       6.181  11.458   0.019  0.00  0.00    +0.000 C 
ATOM      2  H   UNL     1       6.824  11.199   0.869  0.00  0.00    +0.000 HD
ATOM      3  H   UNL     1       5.868  12.505   0.112  0.00  0.00    +0.000 HD
ENDROOT
BRANCH   1   4
ATOM      4  C   UNL     1       6.935  11.254  -1.286  0.00  0.00    +0.000 C 
ATOM      5  H   UNL     1       6.221  11.165  -2.114  0.00  0.00    +0.000 HD
ATOM      6  H   UNL     1       7.540  12.142  -1.504  0.00  0.00    +0.000 HD
BRANCH   4   7
ATOM      7  C   UNL     1       7.824  10.024  -1.239  0.00  0.00    +0.000 C 
ATOM      8  H   UNL     1       8.861  10.281  -1.477  0.00  0.00    +0.000 HD
ATOM      9  H   UNL     1       7.804   9.579  -0.239  0.00  0.00    +0.000 HD
ATOM     10  H   UNL     1       7.484   9.268  -1.954  0.00  0.00    +0.000 HD
ENDBRANCH   4   7
ENDBRANCH   1   4
BRANCH   1  11
ATOM     11  O   UNL     1       5.034  10.619   0.022  0.00  0.00    +0.000 OA
BRANCH  11  13
ATOM     12  O   UNL     1       3.282  11.750   1.018  0.00  0.00    +0.000 OA
ATOM     13  C   UNL     1       3.825  11.262   0.037  0.00  0.00    +0.000 C 
BRANCH  13  14
ATOM     14  C   UNL     1       3.246  11.289  -1.345  0.00  0.00    +0.000 C 
ATOM     15  H   UNL     1       2.927  10.284  -1.634  0.00  0.00    +0.000 HD
ATOM     16  H   UNL     1       3.985  11.676  -2.050  0.00  0.00    +0.000 HD
ATOM     17  H   UNL     1       2.373  11.949  -1.360  0.00  0.00    +0.000 HD
ENDBRANCH  13  14
ENDBRANCH  11  13
ENDBRANCH   1  11
TORSDOF 5
ENDMDL
MODEL 3
REMARK VINA RESULT:    -3.413      1.252      1.479
REMARK INTER + INTRA:          -4.345
REMARK INTER:                  -4.261
REMARK INTRA:                  -0.084
REMARK UNBOUND:                -0.133
REMARK  Name = 7997
REMARK  5 active torsions:
REMARK  status: ('A' for Active; 'I' for Inactive)
REMARK    1  A    between atoms: O_1  and  C_4
REMARK    2  A    between atoms: O_1  and  C_6
REMARK    3  A    between atoms: C_3  and  C_4
REMARK    4  A    between atoms: C_3  and  C_5
REMARK    5  A    between atoms: C_6  and  C_7
REMARK                            x       y       z     vdW  Elec       q    Type
REMARK                         _______ _______ _______ _____ _____    ______ ____
ROOT
ATOM      1  C   UNL     1       5.242   9.140   0.282  0.00  0.00    +0.000 C 
ATOM      2  H   UNL     1       5.821  10.048   0.071  0.00  0.00    +0.000 HD
ATOM      3  H   UNL     1       5.451   8.394  -0.493  0.00  0.00    +0.000 HD
ENDROOT
BRANCH   1   4
ATOM      4  C   UNL     1       5.618   8.589   1.649  0.00  0.00    +0.000 C 
ATOM      5  H   UNL     1       5.037   9.102   2.425  0.00  0.00    +0.000 HD
ATOM      6  H   UNL     1       5.335   7.532   1.710  0.00  0.00    +0.000 HD
BRANCH   4   7
ATOM      7  C   UNL     1       7.102   8.743   1.932  0.00  0.00    +0.000 C 
ATOM      8  H   UNL     1       7.269   9.345   2.830  0.00  0.00    +0.000 HD
ATOM      9  H   UNL     1       7.562   7.763   2.089  0.00  0.00    +0.000 HD
ATOM     10  H   UNL     1       7.612   9.228   1.094  0.00  0.00    +0.000 HD
ENDBRANCH   4   7
ENDBRANCH   1   4
BRANCH   1  11
ATOM     11  O   UNL     1       3.856   9.452   0.278  0.00  0.00    +0.000 OA
BRANCH  11  13
ATOM     12  O   UNL     1       3.355  11.540   1.133  0.00  0.00    +0.000 OA
ATOM     13  C   UNL     1       3.545  10.782   0.191  0.00  0.00    +0.000 C 
BRANCH  13  14
ATOM     14  C   UNL     1       3.470  11.195  -1.247  0.00  0.00    +0.000 C 
ATOM     15  H   UNL     1       3.249  10.325  -1.872  0.00  0.00    +0.000 HD
ATOM     16  H   UNL     1       4.412  11.657  -1.551  0.00  0.00    +0.000 HD
ATOM     17  H   UNL     1       2.667  11.927  -1.374  0.00  0.00    +0.000 HD
ENDBRANCH  13  14
ENDBRANCH  11  13
ENDBRANCH   1  11
TORSDOF 5
ENDMDL
MODEL 4
REMARK VINA RESULT:    -3.393      1.348      1.763
REMARK INTER + INTRA:          -4.320
REMARK INTER:                  -4.229
REMARK INTRA:                  -0.091
REMARK UNBOUND:                -0.133
REMARK  Name = 7997
REMARK  5 active torsions:
REMARK  status: ('A' for Active; 'I' for Inactive)
REMARK    1  A    between atoms: O_1  and  C_4
REMARK    2  A    between atoms: O_1  and  C_6
REMARK    3  A    between atoms: C_3  and  C_4
REMARK    4  A    between atoms: C_3  and  C_5
REMARK    5  A    between atoms: C_6  and  C_7
REMARK                            x       y       z     vdW  Elec       q    Type
REMARK                         _______ _______ _______ _____ _____    ______ ____
ROOT
ATOM      1  C   UNL     1       4.888   8.721   2.208  0.00  0.00    +0.000 C 
ATOM      2  H   UNL     1       5.841   9.227   2.406  0.00  0.00    +0.000 HD
ATOM      3  H   UNL     1       4.908   8.303   1.196  0.00  0.00    +0.000 HD
ENDROOT
BRANCH   1   4
ATOM      4  C   UNL     1       4.666   7.612   3.225  0.00  0.00    +0.000 C 
ATOM      5  H   UNL     1       4.118   8.008   4.089  0.00  0.00    +0.000 HD
ATOM      6  H   UNL     1       4.024   6.837   2.791  0.00  0.00    +0.000 HD
BRANCH   4   7
ATOM      7  C   UNL     1       5.976   6.998   3.686  0.00  0.00    +0.000 C 
ATOM      8  H   UNL     1       6.798   7.283   3.022  0.00  0.00    +0.000 HD
ATOM      9  H   UNL     1       6.221   7.338   4.696  0.00  0.00    +0.000 HD
ATOM     10  H   UNL     1       5.911   5.905   3.703  0.00  0.00    +0.000 HD
ENDBRANCH   4   7
ENDBRANCH   1   4
BRANCH   1  11
ATOM     11  O   UNL     1       3.825   9.659   2.313  0.00  0.00    +0.000 OA
BRANCH  11  13
ATOM     12  O   UNL     1       3.219  11.583   1.187  0.00  0.00    +0.000 OA
ATOM     13  C   UNL     1       3.588  10.417   1.198  0.00  0.00    +0.000 C 
BRANCH  13  14
ATOM     14  C   UNL     1       3.851   9.607  -0.034  0.00  0.00    +0.000 C 
ATOM     15  H   UNL     1       3.333  10.052  -0.888  0.00  0.00    +0.000 HD
ATOM     16  H   UNL     1       3.524   8.577   0.121  0.00  0.00    +0.000 HD
ATOM     17  H   UNL     1       4.926   9.603  -0.244  0.00  0.00    +0.000 HD
ENDBRANCH  13  14
ENDBRANCH  11  13
ENDBRANCH   1  11
TORSDOF 5
ENDMDL
MODEL 5
REMARK VINA RESULT:    -3.364      2.026      3.024
REMARK INTER + INTRA:          -4.284
REMARK INTER:                  -4.113
REMARK INTRA:                  -0.171
REMARK UNBOUND:                -0.133
REMARK  Name = 7997
REMARK  5 active torsions:
REMARK  status: ('A' for Active; 'I' for Inactive)
REMARK    1  A    between atoms: O_1  and  C_4
REMARK    2  A    between atoms: O_1  and  C_6
REMARK    3  A    between atoms: C_3  and  C_4
REMARK    4  A    between atoms: C_3  and  C_5
REMARK    5  A    between atoms: C_6  and  C_7
REMARK                            x       y       z     vdW  Elec       q    Type
REMARK                         _______ _______ _______ _____ _____    ______ ____
ROOT
ATOM      1  C   UNL     1       5.625   9.165   0.383  0.00  0.00    +0.000 C 
ATOM      2  H   UNL     1       5.809   8.327  -0.301  0.00  0.00    +0.000 HD
ATOM      3  H   UNL     1       5.703   8.808   1.416  0.00  0.00    +0.000 HD
ENDROOT
BRANCH   1   4
ATOM      4  C   UNL     1       6.640  10.271   0.137  0.00  0.00    +0.000 C 
ATOM      5  H   UNL     1       6.558  11.029   0.926  0.00  0.00    +0.000 HD
ATOM      6  H   UNL     1       7.655   9.863   0.216  0.00  0.00    +0.000 HD
BRANCH   4   7
ATOM      7  C   UNL     1       6.450  10.921  -1.221  0.00  0.00    +0.000 C 
ATOM      8  H   UNL     1       7.384  11.368  -1.576  0.00  0.00    +0.000 HD
ATOM      9  H   UNL     1       6.128  10.178  -1.957  0.00  0.00    +0.000 HD
ATOM     10  H   UNL     1       5.689  11.706  -1.177  0.00  0.00    +0.000 HD
ENDBRANCH   4   7
ENDBRANCH   1   4
BRANCH   1  11
ATOM     11  O   UNL     1       4.321   9.681   0.157  0.00  0.00    +0.000 OA
BRANCH  11  13
ATOM     12  O   UNL     1       3.317  11.415   1.307  0.00  0.00    +0.000 OA
ATOM     13  C   UNL     1       3.713  10.260   1.238  0.00  0.00    +0.000 C 
BRANCH  13  14
ATOM     14  C   UNL     1       3.594   9.262   2.350  0.00  0.00    +0.000 C 
ATOM     15  H   UNL     1       2.571   8.880   2.396  0.00  0.00    +0.000 HD
ATOM     16  H   UNL     1       3.875   9.727   3.297  0.00  0.00    +0.000 HD
ATOM     17  H   UNL     1       4.271   8.424   2.159  0.00  0.00    +0.000 HD
ENDBRANCH  13  14
ENDBRANCH  11  13
ENDBRANCH   1  11
TORSDOF 5
ENDMDL
MODEL 6
REMARK VINA RESULT:    -3.332     12.264     12.820
REMARK INTER + INTRA:          -4.244
REMARK INTER:                  -4.253
REMARK INTRA:                   0.009
REMARK UNBOUND:                -0.133
REMARK  Name = 7997
REMARK  5 active torsions:
REMARK  status: ('A' for Active; 'I' for Inactive)
REMARK    1  A    between atoms: O_1  and  C_4
REMARK    2  A    between atoms: O_1  and  C_6
REMARK    3  A    between atoms: C_3  and  C_4
REMARK    4  A    between atoms: C_3  and  C_5
REMARK    5  A    between atoms: C_6  and  C_7
REMARK                            x       y       z     vdW  Elec       q    Type
REMARK                         _______ _______ _______ _____ _____    ______ ____
ROOT
ATOM      1  C   UNL     1      -3.124   8.562  -8.763  0.00  0.00    +0.000 C 
ATOM      2  H   UNL     1      -3.913   9.072  -9.331  0.00  0.00    +0.000 HD
ATOM      3  H   UNL     1      -3.304   8.706  -7.692  0.00  0.00    +0.000 HD
ENDROOT
BRANCH   1   4
ATOM      4  C   UNL     1      -3.120   7.078  -9.095  0.00  0.00    +0.000 C 
ATOM      5  H   UNL     1      -2.865   6.938 -10.153  0.00  0.00    +0.000 HD
ATOM      6  H   UNL     1      -2.329   6.575  -8.526  0.00  0.00    +0.000 HD
BRANCH   4   7
ATOM      7  C   UNL     1      -4.460   6.428  -8.799  0.00  0.00    +0.000 C 
ATOM      8  H   UNL     1      -4.411   5.345  -8.945  0.00  0.00    +0.000 HD
ATOM      9  H   UNL     1      -4.754   6.619  -7.763  0.00  0.00    +0.000 HD
ATOM     10  H   UNL     1      -5.242   6.828  -9.453  0.00  0.00    +0.000 HD
ENDBRANCH   4   7
ENDBRANCH   1   4
BRANCH   1  11
ATOM     11  O   UNL     1      -1.861   9.114  -9.109  0.00  0.00    +0.000 OA
BRANCH  11  13
ATOM     12  O   UNL     1      -0.804  10.189 -10.860  0.00  0.00    +0.000 OA
ATOM     13  C   UNL     1      -1.816   9.802 -10.291  0.00  0.00    +0.000 C 
BRANCH  13  14
ATOM     14  C   UNL     1      -3.206  10.021 -10.807  0.00  0.00    +0.000 C 
ATOM     15  H   UNL     1      -3.396  11.092 -10.917  0.00  0.00    +0.000 HD
ATOM     16  H   UNL     1      -3.930   9.570 -10.125  0.00  0.00    +0.000 HD
ATOM     17  H   UNL     1      -3.308   9.547 -11.788  0.00  0.00    +0.000 HD
ENDBRANCH  13  14
ENDBRANCH  11  13
ENDBRANCH   1  11
TORSDOF 5
ENDMDL
MODEL 7
REMARK VINA RESULT:    -3.282     27.584     28.235
REMARK INTER + INTRA:          -4.182
REMARK INTER:                  -4.077
REMARK INTRA:                  -0.105
REMARK UNBOUND:                -0.133
REMARK  Name = 7997
REMARK  5 active torsions:
REMARK  status: ('A' for Active; 'I' for Inactive)
REMARK    1  A    between atoms: O_1  and  C_4
REMARK    2  A    between atoms: O_1  and  C_6
REMARK    3  A    between atoms: C_3  and  C_4
REMARK    4  A    between atoms: C_3  and  C_5
REMARK    5  A    between atoms: C_6  and  C_7
REMARK                            x       y       z     vdW  Elec       q    Type
REMARK                         _______ _______ _______ _____ _____    ______ ____
ROOT
ATOM      1  C   UNL     1     -20.773  -2.900   5.364  0.00  0.00    +0.000 C 
ATOM      2  H   UNL     1     -21.852  -3.025   5.214  0.00  0.00    +0.000 HD
ATOM      3  H   UNL     1     -20.316  -2.575   4.422  0.00  0.00    +0.000 HD
ENDROOT
BRANCH   1   4
ATOM      4  C   UNL     1     -20.515  -1.868   6.451  0.00  0.00    +0.000 C 
ATOM      5  H   UNL     1     -21.295  -1.938   7.218  0.00  0.00    +0.000 HD
ATOM      6  H   UNL     1     -19.571  -2.097   6.959  0.00  0.00    +0.000 HD
BRANCH   4   7
ATOM      7  C   UNL     1     -20.469  -0.457   5.892  0.00  0.00    +0.000 C 
ATOM      8  H   UNL     1     -21.223   0.178   6.367  0.00  0.00    +0.000 HD
ATOM      9  H   UNL     1     -19.487  -0.010   6.069  0.00  0.00    +0.000 HD
ATOM     10  H   UNL     1     -20.652  -0.457   4.812  0.00  0.00    +0.000 HD
ENDBRANCH   4   7
ENDBRANCH   1   4
BRANCH   1  11
ATOM     11  O   UNL     1     -20.205  -4.140   5.763  0.00  0.00    +0.000 OA
BRANCH  11  13
ATOM     12  O   UNL     1     -18.537  -5.561   5.031  0.00  0.00    +0.000 OA
ATOM     13  C   UNL     1     -19.458  -4.785   4.816  0.00  0.00    +0.000 C 
BRANCH  13  14
ATOM     14  C   UNL     1     -19.934  -4.406   3.446  0.00  0.00    +0.000 C 
ATOM     15  H   UNL     1     -19.522  -3.433   3.167  0.00  0.00    +0.000 HD
ATOM     16  H   UNL     1     -21.025  -4.382   3.426  0.00  0.00    +0.000 HD
ATOM     17  H   UNL     1     -19.588  -5.151   2.723  0.00  0.00    +0.000 HD
ENDBRANCH  13  14
ENDBRANCH  11  13
ENDBRANCH   1  11
TORSDOF 5
ENDMDL
MODEL 8
REMARK VINA RESULT:    -3.101     27.893     28.535
REMARK INTER + INTRA:          -3.960
REMARK INTER:                  -3.834
REMARK INTRA:                  -0.125
REMARK UNBOUND:                -0.133
REMARK  Name = 7997
REMARK  5 active torsions:
REMARK  status: ('A' for Active; 'I' for Inactive)
REMARK    1  A    between atoms: O_1  and  C_4
REMARK    2  A    between atoms: O_1  and  C_6
REMARK    3  A    between atoms: C_3  and  C_4
REMARK    4  A    between atoms: C_3  and  C_5
REMARK    5  A    between atoms: C_6  and  C_7
REMARK                            x       y       z     vdW  Elec       q    Type
REMARK                         _______ _______ _______ _____ _____    ______ ____
ROOT
ATOM      1  C   UNL     1     -20.925  -3.426   4.845  0.00  0.00    +0.000 C 
ATOM      2  H   UNL     1     -21.031  -2.413   4.436  0.00  0.00    +0.000 HD
ATOM      3  H   UNL     1     -21.913  -3.899   4.889  0.00  0.00    +0.000 HD
ENDROOT
BRANCH   1   4
ATOM      4  C   UNL     1     -19.994  -4.247   3.966  0.00  0.00    +0.000 C 
ATOM      5  H   UNL     1     -20.582  -4.809   3.230  0.00  0.00    +0.000 HD
ATOM      6  H   UNL     1     -19.348  -3.577   3.387  0.00  0.00    +0.000 HD
BRANCH   4   7
ATOM      7  C   UNL     1     -19.144  -5.203   4.783  0.00  0.00    +0.000 C 
ATOM      8  H   UNL     1     -19.743  -5.704   5.550  0.00  0.00    +0.000 HD
ATOM      9  H   UNL     1     -18.708  -5.971   4.137  0.00  0.00    +0.000 HD
ATOM     10  H   UNL     1     -18.325  -4.673   5.280  0.00  0.00    +0.000 HD
ENDBRANCH   4   7
ENDBRANCH   1   4
BRANCH   1  11
ATOM     11  O   UNL     1     -20.376  -3.352   6.153  0.00  0.00    +0.000 OA
BRANCH  11  13
ATOM     12  O   UNL     1     -21.551  -2.478   7.940  0.00  0.00    +0.000 OA
ATOM     13  C   UNL     1     -20.854  -2.343   6.944  0.00  0.00    +0.000 C 
BRANCH  13  14
ATOM     14  C   UNL     1     -20.393  -1.019   6.414  0.00  0.00    +0.000 C 
ATOM     15  H   UNL     1     -20.103  -0.368   7.243  0.00  0.00    +0.000 HD
ATOM     16  H   UNL     1     -21.188  -0.559   5.823  0.00  0.00    +0.000 HD
ATOM     17  H   UNL     1     -19.522  -1.170   5.768  0.00  0.00    +0.000 HD
ENDBRANCH  13  14
ENDBRANCH  11  13
ENDBRANCH   1  11
TORSDOF 5
ENDMDL
MODEL 9
REMARK VINA RESULT:    -3.078     12.982     13.729
REMARK INTER + INTRA:          -3.931
REMARK INTER:                  -3.782
REMARK INTRA:                  -0.149
REMARK UNBOUND:                -0.133
REMARK  Name = 7997
REMARK  5 active torsions:
REMARK  status: ('A' for Active; 'I' for Inactive)
REMARK    1  A    between atoms: O_1  and  C_4
REMARK    2  A    between atoms: O_1  and  C_6
REMARK    3  A    between atoms: C_3  and  C_4
REMARK    4  A    between atoms: C_3  and  C_5
REMARK    5  A    between atoms: C_6  and  C_7
REMARK                            x       y       z     vdW  Elec       q    Type
REMARK                         _______ _______ _______ _____ _____    ______ ____
ROOT
ATOM      1  C   UNL     1      -3.353   8.470 -10.895  0.00  0.00    +0.000 C 
ATOM      2  H   UNL     1      -4.385   8.592 -11.244  0.00  0.00    +0.000 HD
ATOM      3  H   UNL     1      -3.200   9.089 -10.004  0.00  0.00    +0.000 HD
ENDROOT
BRANCH   1   4
ATOM      4  C   UNL     1      -3.084   7.009 -10.567  0.00  0.00    +0.000 C 
ATOM      5  H   UNL     1      -3.714   6.368 -11.196  0.00  0.00    +0.000 HD
ATOM      6  H   UNL     1      -2.048   6.759 -10.825  0.00  0.00    +0.000 HD
BRANCH   4   7
ATOM      7  C   UNL     1      -3.338   6.703  -9.102  0.00  0.00    +0.000 C 
ATOM      8  H   UNL     1      -4.392   6.463  -8.929  0.00  0.00    +0.000 HD
ATOM      9  H   UNL     1      -2.738   5.846  -8.783  0.00  0.00    +0.000 HD
ATOM     10  H   UNL     1      -3.073   7.557  -8.472  0.00  0.00    +0.000 HD
ENDBRANCH   4   7
ENDBRANCH   1   4
BRANCH   1  11
ATOM     11  O   UNL     1      -2.457   8.883 -11.918  0.00  0.00    +0.000 OA
BRANCH  11  13
ATOM     12  O   UNL     1      -1.009  10.020 -10.522  0.00  0.00    +0.000 OA
ATOM     13  C   UNL     1      -1.228   9.313 -11.496  0.00  0.00    +0.000 C 
BRANCH  13  14
ATOM     14  C   UNL     1      -0.163   8.786 -12.409  0.00  0.00    +0.000 C 
ATOM     15  H   UNL     1       0.260   7.867 -11.994  0.00  0.00    +0.000 HD
ATOM     16  H   UNL     1       0.615   9.540 -12.546  0.00  0.00    +0.000 HD
ATOM     17  H   UNL     1      -0.602   8.557 -13.385  0.00  0.00    +0.000 HD
ENDBRANCH  13  14
ENDBRANCH  11  13
ENDBRANCH   1  11
TORSDOF 5
ENDMDL
MODEL 10
REMARK VINA RESULT:    -2.988      5.379      6.902
REMARK INTER + INTRA:          -3.820
REMARK INTER:                  -3.686
REMARK INTRA:                  -0.133
REMARK UNBOUND:                -0.133
REMARK  Name = 7997
REMARK  5 active torsions:
REMARK  status: ('A' for Active; 'I' for Inactive)
REMARK    1  A    between atoms: O_1  and  C_4
REMARK    2  A    between atoms: O_1  and  C_6
REMARK    3  A    between atoms: C_3  and  C_4
REMARK    4  A    between atoms: C_3  and  C_5
REMARK    5  A    between atoms: C_6  and  C_7
REMARK                            x       y       z     vdW  Elec       q    Type
REMARK                         _______ _______ _______ _____ _____    ______ ____
ROOT
ATOM      1  C   UNL     1       7.587   8.707   5.581  0.00  0.00    +0.000 C 
ATOM      2  H   UNL     1       8.139   8.053   6.267  0.00  0.00    +0.000 HD
ATOM      3  H   UNL     1       8.289   9.152   4.867  0.00  0.00    +0.000 HD
ENDROOT
BRANCH   1   4
ATOM      4  C   UNL     1       6.526   7.908   4.841  0.00  0.00    +0.000 C 
ATOM      5  H   UNL     1       6.766   7.879   3.771  0.00  0.00    +0.000 HD
ATOM      6  H   UNL     1       6.544   6.867   5.182  0.00  0.00    +0.000 HD
BRANCH   4   7
ATOM      7  C   UNL     1       5.138   8.491   5.039  0.00  0.00    +0.000 C 
ATOM      8  H   UNL     1       4.981   8.784   6.082  0.00  0.00    +0.000 HD
ATOM      9  H   UNL     1       5.005   9.379   4.413  0.00  0.00    +0.000 HD
ATOM     10  H   UNL     1       4.366   7.765   4.766  0.00  0.00    +0.000 HD
ENDBRANCH   4   7
ENDBRANCH   1   4
BRANCH   1  11
ATOM     11  O   UNL     1       6.950   9.739   6.323  0.00  0.00    +0.000 OA
BRANCH  11  13
ATOM     12  O   UNL     1       7.644  11.541   7.591  0.00  0.00    +0.000 OA
ATOM     13  C   UNL     1       7.728  10.367   7.258  0.00  0.00    +0.000 C 
BRANCH  13  14
ATOM     14  C   UNL     1       8.716   9.399   7.833  0.00  0.00    +0.000 C 
ATOM     15  H   UNL     1       9.585   9.940   8.217  0.00  0.00    +0.000 HD
ATOM     16  H   UNL     1       9.018   8.679   7.069  0.00  0.00    +0.000 HD
ATOM     17  H   UNL     1       8.252   8.854   8.661  0.00  0.00    +0.000 HD
ENDBRANCH  13  14
ENDBRANCH  11  13
ENDBRANCH   1  11
TORSDOF 5
ENDMDL
