MODEL 1
REMARK VINA RESULT:    -3.910      0.000      0.000
REMARK INTER + INTRA:          -3.910
REMARK INTER:                  -3.910
REMARK INTRA:                   0.000
REMARK UNBOUND:                 0.000
REMARK  Name = 1049
REMARK  0 active torsions:
REMARK  status: ('A' for Active; 'I' for Inactive)
REMARK                            x       y       z     vdW  Elec       q    Type
REMARK                         _______ _______ _______ _____ _____    ______ ____
ROOT
ATOM      1  N   UNL     1      -1.834   8.980 -10.535  0.00  0.00    +0.000 NA
ATOM      2  C   UNL     1      -3.317   7.108  -9.080  0.00  0.00    +0.000 A 
ATOM      3  C   UNL     1      -3.072   8.370  -8.549  0.00  0.00    +0.000 A 
ATOM      4  C   UNL     1      -2.822   6.782 -10.337  0.00  0.00    +0.000 A 
ATOM      5  C   UNL     1      -2.331   9.261  -9.310  0.00  0.00    +0.000 A 
ATOM      6  C   UNL     1      -2.093   7.744 -11.019  0.00  0.00    +0.000 A 
ATOM      7  H   UNL     1      -3.893   6.382  -8.515  0.00  0.00    +0.000 HD
ATOM      8  H   UNL     1      -3.448   8.647  -7.571  0.00  0.00    +0.000 HD
ATOM      9  H   UNL     1      -3.001   5.804 -10.772  0.00  0.00    +0.000 HD
ATOM     10  H   UNL     1      -2.112  10.257  -8.941  0.00  0.00    +0.000 HD
ATOM     11  H   UNL     1      -1.685   7.537 -12.002  0.00  0.00    +0.000 HD
ENDROOT
TORSDOF 0
ENDMDL
MODEL 2
REMARK VINA RESULT:    -3.904      0.167      1.922
REMARK INTER + INTRA:          -3.904
REMARK INTER:                  -3.904
REMARK INTRA:                   0.000
REMARK UNBOUND:                 0.000
REMARK  Name = 1049
REMARK  0 active torsions:
REMARK  status: ('A' for Active; 'I' for Inactive)
REMARK                            x       y       z     vdW  Elec       q    Type
REMARK                         _______ _______ _______ _____ _____    ______ ____
ROOT
ATOM      1  N   UNL     1      -1.903   9.123 -10.385  0.00  0.00    +0.000 NA
ATOM      2  C   UNL     1      -3.299   7.038  -9.152  0.00  0.00    +0.000 A 
ATOM      3  C   UNL     1      -2.749   6.857 -10.417  0.00  0.00    +0.000 A 
ATOM      4  C   UNL     1      -3.153   8.259  -8.504  0.00  0.00    +0.000 A 
ATOM      5  C   UNL     1      -2.066   7.922 -10.984  0.00  0.00    +0.000 A 
ATOM      6  C   UNL     1      -2.452   9.261  -9.157  0.00  0.00    +0.000 A 
ATOM      7  H   UNL     1      -3.842   6.228  -8.673  0.00  0.00    +0.000 HD
ATOM      8  H   UNL     1      -2.851   5.914 -10.941  0.00  0.00    +0.000 HD
ATOM      9  H   UNL     1      -3.574   8.422  -7.518  0.00  0.00    +0.000 HD
ATOM     10  H   UNL     1      -1.618   7.833 -11.968  0.00  0.00    +0.000 HD
ATOM     11  H   UNL     1      -2.310  10.231  -8.694  0.00  0.00    +0.000 HD
ENDROOT
TORSDOF 0
ENDMDL
MODEL 3
REMARK VINA RESULT:    -3.657     11.423     12.137
REMARK INTER + INTRA:          -3.657
REMARK INTER:                  -3.657
REMARK INTRA:                   0.000
REMARK UNBOUND:                 0.000
REMARK  Name = 1049
REMARK  0 active torsions:
REMARK  status: ('A' for Active; 'I' for Inactive)
REMARK                            x       y       z     vdW  Elec       q    Type
REMARK                         _______ _______ _______ _____ _____    ______ ____
ROOT
ATOM      1  N   UNL     1       3.341  11.328   1.326  0.00  0.00    +0.000 NA
ATOM      2  C   UNL     1       3.713   9.821  -0.999  0.00  0.00    +0.000 A 
ATOM      3  C   UNL     1       3.761   9.205   0.247  0.00  0.00    +0.000 A 
ATOM      4  C   UNL     1       3.478  11.189  -1.084  0.00  0.00    +0.000 A 
ATOM      5  C   UNL     1       3.571   9.996   1.369  0.00  0.00    +0.000 A 
ATOM      6  C   UNL     1       3.301  11.891   0.098  0.00  0.00    +0.000 A 
ATOM      7  H   UNL     1       3.857   9.236  -1.903  0.00  0.00    +0.000 HD
ATOM      8  H   UNL     1       3.942   8.141   0.336  0.00  0.00    +0.000 HD
ATOM      9  H   UNL     1       3.436  11.691  -2.044  0.00  0.00    +0.000 HD
ATOM     10  H   UNL     1       3.599   9.565   2.363  0.00  0.00    +0.000 HD
ATOM     11  H   UNL     1       3.115  12.960   0.085  0.00  0.00    +0.000 HD
ENDROOT
TORSDOF 0
ENDMDL
MODEL 4
REMARK VINA RESULT:    -3.275     12.746     12.959
REMARK INTER + INTRA:          -3.275
REMARK INTER:                  -3.275
REMARK INTRA:                   0.000
REMARK UNBOUND:                 0.000
REMARK  Name = 1049
REMARK  0 active torsions:
REMARK  status: ('A' for Active; 'I' for Inactive)
REMARK                            x       y       z     vdW  Elec       q    Type
REMARK                         _______ _______ _______ _____ _____    ______ ____
ROOT
ATOM      1  N   UNL     1       5.819  10.959  -0.081  0.00  0.00    +0.000 NA
ATOM      2  C   UNL     1       3.537   9.871   1.113  0.00  0.00    +0.000 A 
ATOM      3  C   UNL     1       4.638   9.064   0.848  0.00  0.00    +0.000 A 
ATOM      4  C   UNL     1       3.576  11.221   0.783  0.00  0.00    +0.000 A 
ATOM      5  C   UNL     1       5.745   9.651   0.255  0.00  0.00    +0.000 A 
ATOM      6  C   UNL     1       4.730  11.712   0.193  0.00  0.00    +0.000 A 
ATOM      7  H   UNL     1       2.651   9.449   1.577  0.00  0.00    +0.000 HD
ATOM      8  H   UNL     1       4.630   8.009   1.097  0.00  0.00    +0.000 HD
ATOM      9  H   UNL     1       2.730  11.869   0.980  0.00  0.00    +0.000 HD
ATOM     10  H   UNL     1       6.628   9.066   0.027  0.00  0.00    +0.000 HD
ATOM     11  H   UNL     1       4.810  12.758  -0.084  0.00  0.00    +0.000 HD
ENDROOT
TORSDOF 0
ENDMDL
MODEL 5
REMARK VINA RESULT:    -3.258     31.131     31.960
REMARK INTER + INTRA:          -3.258
REMARK INTER:                  -3.258
REMARK INTRA:                   0.000
REMARK UNBOUND:                 0.000
REMARK  Name = 1049
REMARK  0 active torsions:
REMARK  status: ('A' for Active; 'I' for Inactive)
REMARK                            x       y       z     vdW  Elec       q    Type
REMARK                         _______ _______ _______ _____ _____    ______ ____
ROOT
ATOM      1  N   UNL     1      -8.536 -10.525  13.837  0.00  0.00    +0.000 NA
ATOM      2  C   UNL     1      -9.670 -11.322  16.265  0.00  0.00    +0.000 A 
ATOM      3  C   UNL     1     -10.144 -10.190  15.611  0.00  0.00    +0.000 A 
ATOM      4  C   UNL     1      -8.630 -12.056  15.706  0.00  0.00    +0.000 A 
ATOM      5  C   UNL     1      -9.548  -9.837  14.411  0.00  0.00    +0.000 A 
ATOM      6  C   UNL     1      -8.102 -11.620  14.501  0.00  0.00    +0.000 A 
ATOM      7  H   UNL     1     -10.110 -11.631  17.208  0.00  0.00    +0.000 HD
ATOM      8  H   UNL     1     -10.954  -9.603  16.028  0.00  0.00    +0.000 HD
ATOM      9  H   UNL     1      -8.244 -12.942  16.198  0.00  0.00    +0.000 HD
ATOM     10  H   UNL     1      -9.881  -8.963  13.861  0.00  0.00    +0.000 HD
ATOM     11  H   UNL     1      -7.289 -12.158  14.025  0.00  0.00    +0.000 HD
ENDROOT
TORSDOF 0
ENDMDL
MODEL 6
REMARK VINA RESULT:    -3.229     31.501     32.368
REMARK INTER + INTRA:          -3.229
REMARK INTER:                  -3.229
REMARK INTRA:                   0.000
REMARK UNBOUND:                 0.000
REMARK  Name = 1049
REMARK  0 active torsions:
REMARK  status: ('A' for Active; 'I' for Inactive)
REMARK                            x       y       z     vdW  Elec       q    Type
REMARK                         _______ _______ _______ _____ _____    ______ ____
ROOT
ATOM      1  N   UNL     1     -10.313  -9.752  14.988  0.00  0.00    +0.000 NA
ATOM      2  C   UNL     1      -9.011 -12.108  15.745  0.00  0.00    +0.000 A 
ATOM      3  C   UNL     1      -8.510 -11.338  14.701  0.00  0.00    +0.000 A 
ATOM      4  C   UNL     1     -10.161 -11.701  16.411  0.00  0.00    +0.000 A 
ATOM      5  C   UNL     1      -9.192 -10.179  14.364  0.00  0.00    +0.000 A 
ATOM      6  C   UNL     1     -10.770 -10.526  15.998  0.00  0.00    +0.000 A 
ATOM      7  H   UNL     1      -8.505 -13.023  16.039  0.00  0.00    +0.000 HD
ATOM      8  H   UNL     1      -7.615 -11.635  14.167  0.00  0.00    +0.000 HD
ATOM      9  H   UNL     1     -10.570 -12.285  17.228  0.00  0.00    +0.000 HD
ATOM     10  H   UNL     1      -8.843  -9.544  13.558  0.00  0.00    +0.000 HD
ATOM     11  H   UNL     1     -11.669 -10.167  16.486  0.00  0.00    +0.000 HD
ENDROOT
TORSDOF 0
ENDMDL
MODEL 7
REMARK VINA RESULT:    -3.164     28.831     29.795
REMARK INTER + INTRA:          -3.164
REMARK INTER:                  -3.164
REMARK INTRA:                   0.000
REMARK UNBOUND:                 0.000
REMARK  Name = 1049
REMARK  0 active torsions:
REMARK  status: ('A' for Active; 'I' for Inactive)
REMARK                            x       y       z     vdW  Elec       q    Type
REMARK                         _______ _______ _______ _____ _____    ______ ____
ROOT
ATOM      1  N   UNL     1     -10.350  10.032  17.772  0.00  0.00    +0.000 NA
ATOM      2  C   UNL     1     -10.277   8.456  20.080  0.00  0.00    +0.000 A 
ATOM      3  C   UNL     1     -11.098   9.578  20.026  0.00  0.00    +0.000 A 
ATOM      4  C   UNL     1      -9.493   8.122  18.982  0.00  0.00    +0.000 A 
ATOM      5  C   UNL     1     -11.097  10.326  18.859  0.00  0.00    +0.000 A 
ATOM      6  C   UNL     1      -9.565   8.935  17.862  0.00  0.00    +0.000 A 
ATOM      7  H   UNL     1     -10.249   7.845  20.977  0.00  0.00    +0.000 HD
ATOM      8  H   UNL     1     -11.717   9.858  20.870  0.00  0.00    +0.000 HD
ATOM      9  H   UNL     1      -8.846   7.252  19.002  0.00  0.00    +0.000 HD
ATOM     10  H   UNL     1     -11.719  11.209  18.766  0.00  0.00    +0.000 HD
ATOM     11  H   UNL     1      -8.973   8.716  16.979  0.00  0.00    +0.000 HD
ENDROOT
TORSDOF 0
ENDMDL
MODEL 8
REMARK VINA RESULT:    -3.154     25.476     25.752
REMARK INTER + INTRA:          -3.154
REMARK INTER:                  -3.154
REMARK INTRA:                   0.000
REMARK UNBOUND:                 0.000
REMARK  Name = 1049
REMARK  0 active torsions:
REMARK  status: ('A' for Active; 'I' for Inactive)
REMARK                            x       y       z     vdW  Elec       q    Type
REMARK                         _______ _______ _______ _____ _____    ______ ____
ROOT
ATOM      1  N   UNL     1      13.490  -9.136   0.951  0.00  0.00    +0.000 NA
ATOM      2  C   UNL     1      14.555  -8.929  -1.626  0.00  0.00    +0.000 A 
ATOM      3  C   UNL     1      13.758 -10.017  -1.285  0.00  0.00    +0.000 A 
ATOM      4  C   UNL     1      14.819  -7.945  -0.681  0.00  0.00    +0.000 A 
ATOM      5  C   UNL     1      13.255 -10.073   0.005  0.00  0.00    +0.000 A 
ATOM      6  C   UNL     1      14.268  -8.094   0.583  0.00  0.00    +0.000 A 
ATOM      7  H   UNL     1      14.968  -8.849  -2.627  0.00  0.00    +0.000 HD
ATOM      8  H   UNL     1      13.539 -10.796  -2.006  0.00  0.00    +0.000 HD
ATOM      9  H   UNL     1      15.437  -7.088  -0.924  0.00  0.00    +0.000 HD
ATOM     10  H   UNL     1      12.629 -10.900   0.321  0.00  0.00    +0.000 HD
ATOM     11  H   UNL     1      14.445  -7.353   1.355  0.00  0.00    +0.000 HD
ENDROOT
TORSDOF 0
ENDMDL
MODEL 9
REMARK VINA RESULT:    -3.045      8.682      8.850
REMARK INTER + INTRA:          -3.045
REMARK INTER:                  -3.045
REMARK INTRA:                   0.000
REMARK UNBOUND:                 0.000
REMARK  Name = 1049
REMARK  0 active torsions:
REMARK  status: ('A' for Active; 'I' for Inactive)
REMARK                            x       y       z     vdW  Elec       q    Type
REMARK                         _______ _______ _______ _____ _____    ______ ____
ROOT
ATOM      1  N   UNL     1      -3.703  -0.426 -12.276  0.00  0.00    +0.000 NA
ATOM      2  C   UNL     1      -2.373  -0.516  -9.818  0.00  0.00    +0.000 A 
ATOM      3  C   UNL     1      -1.647  -0.454 -11.003  0.00  0.00    +0.000 A 
ATOM      4  C   UNL     1      -3.762  -0.533  -9.861  0.00  0.00    +0.000 A 
ATOM      5  C   UNL     1      -2.354  -0.412 -12.195  0.00  0.00    +0.000 A 
ATOM      6  C   UNL     1      -4.375  -0.487 -11.104  0.00  0.00    +0.000 A 
ATOM      7  H   UNL     1      -1.856  -0.551  -8.864  0.00  0.00    +0.000 HD
ATOM      8  H   UNL     1      -0.564  -0.440 -10.994  0.00  0.00    +0.000 HD
ATOM      9  H   UNL     1      -4.349  -0.581  -8.950  0.00  0.00    +0.000 HD
ATOM     10  H   UNL     1      -1.835  -0.363 -13.146  0.00  0.00    +0.000 HD
ATOM     11  H   UNL     1      -5.456  -0.498 -11.190  0.00  0.00    +0.000 HD
ENDROOT
TORSDOF 0
ENDMDL
MODEL 10
REMARK VINA RESULT:    -3.003     13.569     14.152
REMARK INTER + INTRA:          -3.003
REMARK INTER:                  -3.003
REMARK INTRA:                   0.000
REMARK UNBOUND:                 0.000
REMARK  Name = 1049
REMARK  0 active torsions:
REMARK  status: ('A' for Active; 'I' for Inactive)
REMARK                            x       y       z     vdW  Elec       q    Type
REMARK                         _______ _______ _______ _____ _____    ______ ____
ROOT
ATOM      1  N   UNL     1       4.236   9.216   2.081  0.00  0.00    +0.000 NA
ATOM      2  C   UNL     1       6.619   7.967   1.322  0.00  0.00    +0.000 A 
ATOM      3  C   UNL     1       6.200   7.924   2.648  0.00  0.00    +0.000 A 
ATOM      4  C   UNL     1       5.848   8.633   0.377  0.00  0.00    +0.000 A 
ATOM      5  C   UNL     1       5.012   8.559   2.973  0.00  0.00    +0.000 A 
ATOM      6  C   UNL     1       4.675   9.236   0.803  0.00  0.00    +0.000 A 
ATOM      7  H   UNL     1       7.545   7.481   1.027  0.00  0.00    +0.000 HD
ATOM      8  H   UNL     1       6.785   7.411   3.402  0.00  0.00    +0.000 HD
ATOM      9  H   UNL     1       6.155   8.679  -0.663  0.00  0.00    +0.000 HD
ATOM     10  H   UNL     1       4.641   8.555   3.992  0.00  0.00    +0.000 HD
ATOM     11  H   UNL     1       4.039   9.768   0.104  0.00  0.00    +0.000 HD
ENDROOT
TORSDOF 0
ENDMDL
