MODEL 1
REMARK VINA RESULT:    -6.038      0.000      0.000
REMARK INTER + INTRA:          -6.038
REMARK INTER:                  -6.038
REMARK INTRA:                   0.000
REMARK UNBOUND:                 0.000
REMARK  Name = 7047
REMARK  0 active torsions:
REMARK  status: ('A' for Active; 'I' for Inactive)
REMARK                            x       y       z     vdW  Elec       q    Type
REMARK                         _______ _______ _______ _____ _____    ______ ____
ROOT
ATOM      1  N   UNL     1      -1.485   7.509 -12.207  0.00  0.00    +0.000 NA
ATOM      2  C   UNL     1      -1.866   9.028 -10.376  0.00  0.00    +0.000 A 
ATOM      3  C   UNL     1      -2.025   7.774 -11.002  0.00  0.00    +0.000 A 
ATOM      4  C   UNL     1      -2.443   9.270  -9.118  0.00  0.00    +0.000 A 
ATOM      5  C   UNL     1      -1.122  10.010 -11.043  0.00  0.00    +0.000 A 
ATOM      6  C   UNL     1      -2.764   6.799 -10.339  0.00  0.00    +0.000 A 
ATOM      7  C   UNL     1      -3.178   8.277  -8.476  0.00  0.00    +0.000 A 
ATOM      8  C   UNL     1      -3.338   7.040  -9.087  0.00  0.00    +0.000 A 
ATOM      9  C   UNL     1      -0.564   9.739 -12.285  0.00  0.00    +0.000 A 
ATOM     10  C   UNL     1      -0.774   8.484 -12.818  0.00  0.00    +0.000 A 
ATOM     11  H   UNL     1      -2.323  10.236  -8.630  0.00  0.00    +0.000 HD
ATOM     12  H   UNL     1      -0.972  10.991 -10.600  0.00  0.00    +0.000 HD
ATOM     13  H   UNL     1      -2.904   5.822 -10.796  0.00  0.00    +0.000 HD
ATOM     14  H   UNL     1      -3.622   8.468  -7.504  0.00  0.00    +0.000 HD
ATOM     15  H   UNL     1      -3.909   6.259  -8.595  0.00  0.00    +0.000 HD
ATOM     16  H   UNL     1       0.014  10.487 -12.815  0.00  0.00    +0.000 HD
ATOM     17  H   UNL     1      -0.362   8.215 -13.786  0.00  0.00    +0.000 HD
ENDROOT
TORSDOF 0
ENDMDL
MODEL 2
REMARK VINA RESULT:    -5.702      0.880      3.397
REMARK INTER + INTRA:          -5.702
REMARK INTER:                  -5.702
REMARK INTRA:                   0.000
REMARK UNBOUND:                 0.000
REMARK  Name = 7047
REMARK  0 active torsions:
REMARK  status: ('A' for Active; 'I' for Inactive)
REMARK                            x       y       z     vdW  Elec       q    Type
REMARK                         _______ _______ _______ _____ _____    ______ ____
ROOT
ATOM      1  N   UNL     1      -2.735   6.765 -10.244  0.00  0.00    +0.000 NA
ATOM      2  C   UNL     1      -1.868   9.010 -10.364  0.00  0.00    +0.000 A 
ATOM      3  C   UNL     1      -2.027   7.710 -10.890  0.00  0.00    +0.000 A 
ATOM      4  C   UNL     1      -1.122   9.972 -11.065  0.00  0.00    +0.000 A 
ATOM      5  C   UNL     1      -2.473   9.303  -9.135  0.00  0.00    +0.000 A 
ATOM      6  C   UNL     1      -1.426   7.419 -12.110  0.00  0.00    +0.000 A 
ATOM      7  C   UNL     1      -0.531   9.654 -12.285  0.00  0.00    +0.000 A 
ATOM      8  C   UNL     1      -0.683   8.376 -12.808  0.00  0.00    +0.000 A 
ATOM      9  C   UNL     1      -3.204   8.331  -8.467  0.00  0.00    +0.000 A 
ATOM     10  C   UNL     1      -3.304   7.088  -9.059  0.00  0.00    +0.000 A 
ATOM     11  H   UNL     1      -0.996  10.976 -10.664  0.00  0.00    +0.000 HD
ATOM     12  H   UNL     1      -2.378  10.291  -8.690  0.00  0.00    +0.000 HD
ATOM     13  H   UNL     1      -1.530   6.426 -12.542  0.00  0.00    +0.000 HD
ATOM     14  H   UNL     1       0.045  10.400 -12.823  0.00  0.00    +0.000 HD
ATOM     15  H   UNL     1      -0.226   8.119 -13.759  0.00  0.00    +0.000 HD
ATOM     16  H   UNL     1      -3.678   8.540  -7.516  0.00  0.00    +0.000 HD
ATOM     17  H   UNL     1      -3.862   6.289  -8.584  0.00  0.00    +0.000 HD
ENDROOT
TORSDOF 0
ENDMDL
MODEL 3
REMARK VINA RESULT:    -5.199      9.483     10.306
REMARK INTER + INTRA:          -5.199
REMARK INTER:                  -5.199
REMARK INTRA:                   0.000
REMARK UNBOUND:                 0.000
REMARK  Name = 7047
REMARK  0 active torsions:
REMARK  status: ('A' for Active; 'I' for Inactive)
REMARK                            x       y       z     vdW  Elec       q    Type
REMARK                         _______ _______ _______ _____ _____    ______ ____
ROOT
ATOM      1  N   UNL     1     -11.873   6.072  -5.927  0.00  0.00    +0.000 NA
ATOM      2  C   UNL     1      -9.533   6.177  -5.364  0.00  0.00    +0.000 A 
ATOM      3  C   UNL     1     -10.734   5.460  -5.553  0.00  0.00    +0.000 A 
ATOM      4  C   UNL     1      -8.362   5.507  -4.973  0.00  0.00    +0.000 A 
ATOM      5  C   UNL     1      -9.550   7.562  -5.577  0.00  0.00    +0.000 A 
ATOM      6  C   UNL     1     -10.717   4.085  -5.342  0.00  0.00    +0.000 A 
ATOM      7  C   UNL     1      -8.372   4.130  -4.768  0.00  0.00    +0.000 A 
ATOM      8  C   UNL     1      -9.551   3.419  -4.953  0.00  0.00    +0.000 A 
ATOM      9  C   UNL     1     -10.724   8.194  -5.963  0.00  0.00    +0.000 A 
ATOM     10  C   UNL     1     -11.848   7.410  -6.123  0.00  0.00    +0.000 A 
ATOM     11  H   UNL     1      -7.433   6.055  -4.826  0.00  0.00    +0.000 HD
ATOM     12  H   UNL     1      -8.649   8.156  -5.443  0.00  0.00    +0.000 HD
ATOM     13  H   UNL     1     -11.627   3.505  -5.480  0.00  0.00    +0.000 HD
ATOM     14  H   UNL     1      -7.465   3.616  -4.466  0.00  0.00    +0.000 HD
ATOM     15  H   UNL     1      -9.569   2.344  -4.795  0.00  0.00    +0.000 HD
ATOM     16  H   UNL     1     -10.755   9.264  -6.131  0.00  0.00    +0.000 HD
ATOM     17  H   UNL     1     -12.794   7.849  -6.423  0.00  0.00    +0.000 HD
ENDROOT
TORSDOF 0
ENDMDL
MODEL 4
REMARK VINA RESULT:    -5.194      1.586      2.557
REMARK INTER + INTRA:          -5.194
REMARK INTER:                  -5.194
REMARK INTRA:                   0.000
REMARK UNBOUND:                 0.000
REMARK  Name = 7047
REMARK  0 active torsions:
REMARK  status: ('A' for Active; 'I' for Inactive)
REMARK                            x       y       z     vdW  Elec       q    Type
REMARK                         _______ _______ _______ _____ _____    ______ ____
ROOT
ATOM      1  N   UNL     1      -2.701   9.549 -12.429  0.00  0.00    +0.000 NA
ATOM      2  C   UNL     1      -3.083   7.664 -10.978  0.00  0.00    +0.000 A 
ATOM      3  C   UNL     1      -2.841   9.038 -11.192  0.00  0.00    +0.000 A 
ATOM      4  C   UNL     1      -3.224   7.164  -9.673  0.00  0.00    +0.000 A 
ATOM      5  C   UNL     1      -3.176   6.828 -12.098  0.00  0.00    +0.000 A 
ATOM      6  C   UNL     1      -2.749   9.868 -10.079  0.00  0.00    +0.000 A 
ATOM      7  C   UNL     1      -3.127   8.016  -8.576  0.00  0.00    +0.000 A 
ATOM      8  C   UNL     1      -2.889   9.370  -8.780  0.00  0.00    +0.000 A 
ATOM      9  C   UNL     1      -3.032   7.353 -13.375  0.00  0.00    +0.000 A 
ATOM     10  C   UNL     1      -2.798   8.708 -13.485  0.00  0.00    +0.000 A 
ATOM     11  H   UNL     1      -3.410   6.105  -9.502  0.00  0.00    +0.000 HD
ATOM     12  H   UNL     1      -3.361   5.762 -11.983  0.00  0.00    +0.000 HD
ATOM     13  H   UNL     1      -2.563  10.932 -10.211  0.00  0.00    +0.000 HD
ATOM     14  H   UNL     1      -3.237   7.626  -7.570  0.00  0.00    +0.000 HD
ATOM     15  H   UNL     1      -2.812  10.043  -7.931  0.00  0.00    +0.000 HD
ATOM     16  H   UNL     1      -3.101   6.721 -14.252  0.00  0.00    +0.000 HD
ATOM     17  H   UNL     1      -2.677   9.175 -14.457  0.00  0.00    +0.000 HD
ENDROOT
TORSDOF 0
ENDMDL
MODEL 5
REMARK VINA RESULT:    -5.167      9.272     10.524
REMARK INTER + INTRA:          -5.167
REMARK INTER:                  -5.167
REMARK INTRA:                   0.000
REMARK UNBOUND:                 0.000
REMARK  Name = 7047
REMARK  0 active torsions:
REMARK  status: ('A' for Active; 'I' for Inactive)
REMARK                            x       y       z     vdW  Elec       q    Type
REMARK                         _______ _______ _______ _____ _____    ______ ____
ROOT
ATOM      1  N   UNL     1      -9.640   7.632  -5.451  0.00  0.00    +0.000 NA
ATOM      2  C   UNL     1     -10.764   5.501  -5.409  0.00  0.00    +0.000 A 
ATOM      3  C   UNL     1      -9.604   6.296  -5.293  0.00  0.00    +0.000 A 
ATOM      4  C   UNL     1     -10.689   4.108  -5.237  0.00  0.00    +0.000 A 
ATOM      5  C   UNL     1     -11.977   6.140  -5.696  0.00  0.00    +0.000 A 
ATOM      6  C   UNL     1      -8.399   5.660  -5.007  0.00  0.00    +0.000 A 
ATOM      7  C   UNL     1      -9.471   3.497  -4.951  0.00  0.00    +0.000 A 
ATOM      8  C   UNL     1      -8.325   4.274  -4.836  0.00  0.00    +0.000 A 
ATOM      9  C   UNL     1     -12.017   7.518  -5.860  0.00  0.00    +0.000 A 
ATOM     10  C   UNL     1     -10.831   8.212  -5.729  0.00  0.00    +0.000 A 
ATOM     11  H   UNL     1     -11.581   3.491  -5.325  0.00  0.00    +0.000 HD
ATOM     12  H   UNL     1     -12.897   5.570  -5.795  0.00  0.00    +0.000 HD
ATOM     13  H   UNL     1      -7.487   6.245  -4.912  0.00  0.00    +0.000 HD
ATOM     14  H   UNL     1      -9.418   2.421  -4.820  0.00  0.00    +0.000 HD
ATOM     15  H   UNL     1      -7.371   3.807  -4.614  0.00  0.00    +0.000 HD
ATOM     16  H   UNL     1     -12.946   8.029  -6.083  0.00  0.00    +0.000 HD
ATOM     17  H   UNL     1     -10.801   9.290  -5.846  0.00  0.00    +0.000 HD
ENDROOT
TORSDOF 0
ENDMDL
MODEL 6
REMARK VINA RESULT:    -5.138     26.194     26.998
REMARK INTER + INTRA:          -5.138
REMARK INTER:                  -5.138
REMARK INTRA:                   0.000
REMARK UNBOUND:                 0.000
REMARK  Name = 7047
REMARK  0 active torsions:
REMARK  status: ('A' for Active; 'I' for Inactive)
REMARK                            x       y       z     vdW  Elec       q    Type
REMARK                         _______ _______ _______ _____ _____    ______ ____
ROOT
ATOM      1  N   UNL     1     -21.383  -4.232   4.935  0.00  0.00    +0.000 NA
ATOM      2  C   UNL     1     -21.013  -1.909   4.410  0.00  0.00    +0.000 A 
ATOM      3  C   UNL     1     -21.061  -2.984   5.323  0.00  0.00    +0.000 A 
ATOM      4  C   UNL     1     -20.673  -0.620   4.850  0.00  0.00    +0.000 A 
ATOM      5  C   UNL     1     -21.312  -2.171   3.067  0.00  0.00    +0.000 A 
ATOM      6  C   UNL     1     -20.763  -2.724   6.658  0.00  0.00    +0.000 A 
ATOM      7  C   UNL     1     -20.380  -0.386   6.191  0.00  0.00    +0.000 A 
ATOM      8  C   UNL     1     -20.425  -1.440   7.096  0.00  0.00    +0.000 A 
ATOM      9  C   UNL     1     -21.645  -3.456   2.663  0.00  0.00    +0.000 A 
ATOM     10  C   UNL     1     -21.665  -4.443   3.628  0.00  0.00    +0.000 A 
ATOM     11  H   UNL     1     -20.634   0.213   4.150  0.00  0.00    +0.000 HD
ATOM     12  H   UNL     1     -21.288  -1.375   2.326  0.00  0.00    +0.000 HD
ATOM     13  H   UNL     1     -20.792  -3.531   7.386  0.00  0.00    +0.000 HD
ATOM     14  H   UNL     1     -20.117   0.612   6.528  0.00  0.00    +0.000 HD
ATOM     15  H   UNL     1     -20.198  -1.268   8.143  0.00  0.00    +0.000 HD
ATOM     16  H   UNL     1     -21.879  -3.677   1.628  0.00  0.00    +0.000 HD
ATOM     17  H   UNL     1     -21.918  -5.467   3.372  0.00  0.00    +0.000 HD
ENDROOT
TORSDOF 0
ENDMDL
MODEL 7
REMARK VINA RESULT:    -5.030     25.941     26.855
REMARK INTER + INTRA:          -5.030
REMARK INTER:                  -5.030
REMARK INTRA:                   0.000
REMARK UNBOUND:                 0.000
REMARK  Name = 7047
REMARK  0 active torsions:
REMARK  status: ('A' for Active; 'I' for Inactive)
REMARK                            x       y       z     vdW  Elec       q    Type
REMARK                         _______ _______ _______ _____ _____    ______ ____
ROOT
ATOM      1  N   UNL     1     -21.173  -2.112   3.032  0.00  0.00    +0.000 NA
ATOM      2  C   UNL     1     -20.855  -2.887   5.291  0.00  0.00    +0.000 A 
ATOM      3  C   UNL     1     -20.921  -1.856   4.329  0.00  0.00    +0.000 A 
ATOM      4  C   UNL     1     -20.590  -2.585   6.637  0.00  0.00    +0.000 A 
ATOM      5  C   UNL     1     -21.061  -4.205   4.861  0.00  0.00    +0.000 A 
ATOM      6  C   UNL     1     -20.716  -0.548   4.756  0.00  0.00    +0.000 A 
ATOM      7  C   UNL     1     -20.389  -1.267   7.038  0.00  0.00    +0.000 A 
ATOM      8  C   UNL     1     -20.452  -0.248   6.096  0.00  0.00    +0.000 A 
ATOM      9  C   UNL     1     -21.321  -4.470   3.524  0.00  0.00    +0.000 A 
ATOM     10  C   UNL     1     -21.366  -3.398   2.657  0.00  0.00    +0.000 A 
ATOM     11  H   UNL     1     -20.538  -3.376   7.382  0.00  0.00    +0.000 HD
ATOM     12  H   UNL     1     -21.020  -5.032   5.566  0.00  0.00    +0.000 HD
ATOM     13  H   UNL     1     -20.760   0.269   4.039  0.00  0.00    +0.000 HD
ATOM     14  H   UNL     1     -20.184  -1.038   8.079  0.00  0.00    +0.000 HD
ATOM     15  H   UNL     1     -20.297   0.784   6.399  0.00  0.00    +0.000 HD
ATOM     16  H   UNL     1     -21.483  -5.483   3.175  0.00  0.00    +0.000 HD
ATOM     17  H   UNL     1     -21.565  -3.543   1.601  0.00  0.00    +0.000 HD
ENDROOT
TORSDOF 0
ENDMDL
MODEL 8
REMARK VINA RESULT:    -5.028      9.412     10.517
REMARK INTER + INTRA:          -5.028
REMARK INTER:                  -5.028
REMARK INTRA:                   0.000
REMARK UNBOUND:                 0.000
REMARK  Name = 7047
REMARK  0 active torsions:
REMARK  status: ('A' for Active; 'I' for Inactive)
REMARK                            x       y       z     vdW  Elec       q    Type
REMARK                         _______ _______ _______ _____ _____    ______ ____
ROOT
ATOM      1  N   UNL     1     -11.156   4.207  -5.314  0.00  0.00    +0.000 NA
ATOM      2  C   UNL     1      -9.512   5.966  -5.407  0.00  0.00    +0.000 A 
ATOM      3  C   UNL     1     -10.848   5.512  -5.430  0.00  0.00    +0.000 A 
ATOM      4  C   UNL     1      -9.226   7.336  -5.530  0.00  0.00    +0.000 A 
ATOM      5  C   UNL     1      -8.494   5.015  -5.259  0.00  0.00    +0.000 A 
ATOM      6  C   UNL     1     -11.859   6.457  -5.577  0.00  0.00    +0.000 A 
ATOM      7  C   UNL     1     -10.257   8.261  -5.677  0.00  0.00    +0.000 A 
ATOM      8  C   UNL     1     -11.574   7.821  -5.700  0.00  0.00    +0.000 A 
ATOM      9  C   UNL     1      -8.809   3.669  -5.139  0.00  0.00    +0.000 A 
ATOM     10  C   UNL     1     -10.144   3.320  -5.172  0.00  0.00    +0.000 A 
ATOM     11  H   UNL     1      -8.198   7.691  -5.513  0.00  0.00    +0.000 HD
ATOM     12  H   UNL     1      -7.450   5.317  -5.235  0.00  0.00    +0.000 HD
ATOM     13  H   UNL     1     -12.899   6.139  -5.598  0.00  0.00    +0.000 HD
ATOM     14  H   UNL     1     -10.032   9.318  -5.772  0.00  0.00    +0.000 HD
ATOM     15  H   UNL     1     -12.385   8.534  -5.814  0.00  0.00    +0.000 HD
ATOM     16  H   UNL     1      -8.035   2.919  -5.024  0.00  0.00    +0.000 HD
ATOM     17  H   UNL     1     -10.451   2.283  -5.084  0.00  0.00    +0.000 HD
ENDROOT
TORSDOF 0
ENDMDL
MODEL 9
REMARK VINA RESULT:    -4.942     17.361     19.286
REMARK INTER + INTRA:          -4.942
REMARK INTER:                  -4.942
REMARK INTRA:                   0.000
REMARK UNBOUND:                 0.000
REMARK  Name = 7047
REMARK  0 active torsions:
REMARK  status: ('A' for Active; 'I' for Inactive)
REMARK                            x       y       z     vdW  Elec       q    Type
REMARK                         _______ _______ _______ _____ _____    ______ ____
ROOT
ATOM      1  N   UNL     1      -8.000  12.098   8.745  0.00  0.00    +0.000 NA
ATOM      2  C   UNL     1      -8.000  11.379   6.445  0.00  0.00    +0.000 A 
ATOM      3  C   UNL     1      -7.628  12.282   7.465  0.00  0.00    +0.000 A 
ATOM      4  C   UNL     1      -7.595  11.602   5.119  0.00  0.00    +0.000 A 
ATOM      5  C   UNL     1      -8.778  10.269   6.798  0.00  0.00    +0.000 A 
ATOM      6  C   UNL     1      -6.856  13.385   7.113  0.00  0.00    +0.000 A 
ATOM      7  C   UNL     1      -6.822  12.714   4.795  0.00  0.00    +0.000 A 
ATOM      8  C   UNL     1      -6.453  13.606   5.793  0.00  0.00    +0.000 A 
ATOM      9  C   UNL     1      -9.162  10.077   8.118  0.00  0.00    +0.000 A 
ATOM     10  C   UNL     1      -8.751  11.013   9.045  0.00  0.00    +0.000 A 
ATOM     11  H   UNL     1      -7.879  10.909   4.329  0.00  0.00    +0.000 HD
ATOM     12  H   UNL     1      -9.089   9.546   6.048  0.00  0.00    +0.000 HD
ATOM     13  H   UNL     1      -6.553  14.099   7.877  0.00  0.00    +0.000 HD
ATOM     14  H   UNL     1      -6.511  12.883   3.768  0.00  0.00    +0.000 HD
ATOM     15  H   UNL     1      -5.850  14.476   5.550  0.00  0.00    +0.000 HD
ATOM     16  H   UNL     1      -9.763   9.224   8.409  0.00  0.00    +0.000 HD
ATOM     17  H   UNL     1      -9.020  10.916  10.091  0.00  0.00    +0.000 HD
ENDROOT
TORSDOF 0
ENDMDL
MODEL 10
REMARK VINA RESULT:    -4.867     17.135     19.115
REMARK INTER + INTRA:          -4.867
REMARK INTER:                  -4.867
REMARK INTRA:                   0.000
REMARK UNBOUND:                 0.000
REMARK  Name = 7047
REMARK  0 active torsions:
REMARK  status: ('A' for Active; 'I' for Inactive)
REMARK                            x       y       z     vdW  Elec       q    Type
REMARK                         _______ _______ _______ _____ _____    ______ ____
ROOT
ATOM      1  N   UNL     1      -7.794  12.285   8.660  0.00  0.00    +0.000 NA
ATOM      2  C   UNL     1      -6.881  13.064   6.571  0.00  0.00    +0.000 A 
ATOM      3  C   UNL     1      -7.659  12.161   7.326  0.00  0.00    +0.000 A 
ATOM      4  C   UNL     1      -6.762  12.905   5.180  0.00  0.00    +0.000 A 
ATOM      5  C   UNL     1      -6.242  14.111   7.247  0.00  0.00    +0.000 A 
ATOM      6  C   UNL     1      -8.294  11.121   6.655  0.00  0.00    +0.000 A 
ATOM      7  C   UNL     1      -7.409  11.855   4.532  0.00  0.00    +0.000 A 
ATOM      8  C   UNL     1      -8.175  10.963   5.270  0.00  0.00    +0.000 A 
ATOM      9  C   UNL     1      -6.379  14.241   8.621  0.00  0.00    +0.000 A 
ATOM     10  C   UNL     1      -7.160  13.309   9.276  0.00  0.00    +0.000 A 
ATOM     11  H   UNL     1      -6.164  13.598   4.592  0.00  0.00    +0.000 HD
ATOM     12  H   UNL     1      -5.632  14.831   6.707  0.00  0.00    +0.000 HD
ATOM     13  H   UNL     1      -8.901  10.408   7.209  0.00  0.00    +0.000 HD
ATOM     14  H   UNL     1      -7.314  11.736   3.457  0.00  0.00    +0.000 HD
ATOM     15  H   UNL     1      -8.683  10.141   4.774  0.00  0.00    +0.000 HD
ATOM     16  H   UNL     1      -5.892  15.044   9.160  0.00  0.00    +0.000 HD
ATOM     17  H   UNL     1      -7.304  13.360  10.350  0.00  0.00    +0.000 HD
ENDROOT
TORSDOF 0
ENDMDL
