MODEL 1
REMARK VINA RESULT:    -6.204      0.000      0.000
REMARK INTER + INTRA:          -7.027
REMARK INTER:                  -6.801
REMARK INTRA:                  -0.227
REMARK UNBOUND:                -0.098
REMARK  Name = 5144
REMARK  2 active torsions:
REMARK  status: ('A' for Active; 'I' for Inactive)
REMARK    1  A    between atoms: C_3  and  C_7
REMARK    2  A    between atoms: C_7  and  C_11
REMARK                            x       y       z     vdW  Elec       q    Type
REMARK                         _______ _______ _______ _____ _____    ______ ____
ROOT
ATOM      1  O   UNL     1       3.212  10.611   1.636  0.00  0.00    +0.000 OA
ATOM      2  O   UNL     1       4.812  11.027  -0.117  0.00  0.00    +0.000 OA
ATOM      3  C   UNL     1       5.549   7.898   2.436  0.00  0.00    +0.000 A 
ATOM      4  C   UNL     1       4.249   9.731   1.664  0.00  0.00    +0.000 A 
ATOM      5  C   UNL     1       5.164   9.969   0.663  0.00  0.00    +0.000 A 
ATOM      6  C   UNL     1       4.415   8.701   2.568  0.00  0.00    +0.000 A 
ATOM      7  C   UNL     1       6.483   8.141   1.413  0.00  0.00    +0.000 A 
ATOM      8  C   UNL     1       6.292   9.190   0.511  0.00  0.00    +0.000 A 
ATOM      9  C   UNL     1       3.575  11.429   0.506  0.00  0.00    +0.000 C 
ATOM     10  H   UNL     1       3.684   8.527   3.350  0.00  0.00    +0.000 HD
ATOM     11  H   UNL     1       7.364   7.511   1.313  0.00  0.00    +0.000 HD
ATOM     12  H   UNL     1       7.010   9.380  -0.280  0.00  0.00    +0.000 HD
ATOM     13  H   UNL     1       3.673  12.469   0.842  0.00  0.00    +0.000 HD
ATOM     14  H   UNL     1       2.774  11.375  -0.240  0.00  0.00    +0.000 HD
ENDROOT
BRANCH   3  15
ATOM     15  C   UNL     1       5.774   6.771   3.387  0.00  0.00    +0.000 C 
ATOM     16  H   UNL     1       4.896   6.112   3.399  0.00  0.00    +0.000 HD
ATOM     17  H   UNL     1       6.597   6.142   3.023  0.00  0.00    +0.000 HD
BRANCH  15  18
ATOM     18  C   UNL     1       6.040   7.234   4.796  0.00  0.00    +0.000 C 
ATOM     19  C   UNL     1       7.045   8.047   5.143  0.00  0.00    +0.000 C 
ATOM     20  H   UNL     1       5.379   6.866   5.576  0.00  0.00    +0.000 HD
ATOM     21  H   UNL     1       7.185   8.336   6.178  0.00  0.00    +0.000 HD
ATOM     22  H   UNL     1       7.739   8.437   4.406  0.00  0.00    +0.000 HD
ENDBRANCH  15  18
ENDBRANCH   3  15
TORSDOF 2
ENDMDL
MODEL 2
REMARK VINA RESULT:    -5.876      2.136      4.392
REMARK INTER + INTRA:          -6.661
REMARK INTER:                  -6.496
REMARK INTRA:                  -0.166
REMARK UNBOUND:                -0.098
REMARK  Name = 5144
REMARK  2 active torsions:
REMARK  status: ('A' for Active; 'I' for Inactive)
REMARK    1  A    between atoms: C_3  and  C_7
REMARK    2  A    between atoms: C_7  and  C_11
REMARK                            x       y       z     vdW  Elec       q    Type
REMARK                         _______ _______ _______ _____ _____    ______ ____
ROOT
ATOM      1  O   UNL     1       5.098   8.383   2.346  0.00  0.00    +0.000 OA
ATOM      2  O   UNL     1       3.025   9.610   2.270  0.00  0.00    +0.000 OA
ATOM      3  C   UNL     1       5.954  10.643  -0.414  0.00  0.00    +0.000 A 
ATOM      4  C   UNL     1       5.099   9.341   1.380  0.00  0.00    +0.000 A 
ATOM      5  C   UNL     1       3.916  10.042   1.337  0.00  0.00    +0.000 A 
ATOM      6  C   UNL     1       6.140   9.619   0.517  0.00  0.00    +0.000 A 
ATOM      7  C   UNL     1       4.745  11.359  -0.459  0.00  0.00    +0.000 A 
ATOM      8  C   UNL     1       3.707  11.058   0.426  0.00  0.00    +0.000 A 
ATOM      9  C   UNL     1       3.780   8.559   2.906  0.00  0.00    +0.000 C 
ATOM     10  H   UNL     1       7.065   9.056   0.565  0.00  0.00    +0.000 HD
ATOM     11  H   UNL     1       4.605  12.155  -1.186  0.00  0.00    +0.000 HD
ATOM     12  H   UNL     1       2.773  11.608   0.394  0.00  0.00    +0.000 HD
ATOM     13  H   UNL     1       3.881   8.796   3.972  0.00  0.00    +0.000 HD
ATOM     14  H   UNL     1       3.226   7.619   2.805  0.00  0.00    +0.000 HD
ENDROOT
BRANCH   3  15
ATOM     15  C   UNL     1       7.049  10.983  -1.370  0.00  0.00    +0.000 C 
ATOM     16  H   UNL     1       6.638  11.094  -2.382  0.00  0.00    +0.000 HD
ATOM     17  H   UNL     1       7.460  11.969  -1.120  0.00  0.00    +0.000 HD
BRANCH  15  18
ATOM     18  C   UNL     1       8.138   9.943  -1.410  0.00  0.00    +0.000 C 
ATOM     19  C   UNL     1       9.440  10.213  -1.258  0.00  0.00    +0.000 C 
ATOM     20  H   UNL     1       7.841   8.914  -1.593  0.00  0.00    +0.000 HD
ATOM     21  H   UNL     1      10.175   9.418  -1.306  0.00  0.00    +0.000 HD
ATOM     22  H   UNL     1       9.793  11.223  -1.081  0.00  0.00    +0.000 HD
ENDBRANCH  15  18
ENDBRANCH   3  15
TORSDOF 2
ENDMDL
MODEL 3
REMARK VINA RESULT:    -5.829     14.171     15.201
REMARK INTER + INTRA:          -6.609
REMARK INTER:                  -6.399
REMARK INTRA:                  -0.209
REMARK UNBOUND:                -0.098
REMARK  Name = 5144
REMARK  2 active torsions:
REMARK  status: ('A' for Active; 'I' for Inactive)
REMARK    1  A    between atoms: C_3  and  C_7
REMARK    2  A    between atoms: C_7  and  C_11
REMARK                            x       y       z     vdW  Elec       q    Type
REMARK                         _______ _______ _______ _____ _____    ______ ____
ROOT
ATOM      1  O   UNL     1      -1.181   7.875 -12.712  0.00  0.00    +0.000 OA
ATOM      2  O   UNL     1      -0.997  10.116 -11.846  0.00  0.00    +0.000 OA
ATOM      3  C   UNL     1      -2.975   7.343  -9.556  0.00  0.00    +0.000 A 
ATOM      4  C   UNL     1      -1.776   8.010 -11.496  0.00  0.00    +0.000 A 
ATOM      5  C   UNL     1      -1.672   9.290 -11.002  0.00  0.00    +0.000 A 
ATOM      6  C   UNL     1      -2.424   7.012 -10.795  0.00  0.00    +0.000 A 
ATOM      7  C   UNL     1      -2.867   8.650  -9.051  0.00  0.00    +0.000 A 
ATOM      8  C   UNL     1      -2.207   9.642  -9.780  0.00  0.00    +0.000 A 
ATOM      9  C   UNL     1      -0.689   9.213 -12.928  0.00  0.00    +0.000 C 
ATOM     10  H   UNL     1      -2.496   6.008 -11.200  0.00  0.00    +0.000 HD
ATOM     11  H   UNL     1      -3.297   8.903  -8.084  0.00  0.00    +0.000 HD
ATOM     12  H   UNL     1      -2.122  10.652  -9.393  0.00  0.00    +0.000 HD
ATOM     13  H   UNL     1      -1.134   9.606 -13.850  0.00  0.00    +0.000 HD
ATOM     14  H   UNL     1       0.400   9.173 -13.051  0.00  0.00    +0.000 HD
ENDROOT
BRANCH   3  15
ATOM     15  C   UNL     1      -3.685   6.300  -8.759  0.00  0.00    +0.000 C 
ATOM     16  H   UNL     1      -3.389   5.301  -9.105  0.00  0.00    +0.000 HD
ATOM     17  H   UNL     1      -3.352   6.348  -7.714  0.00  0.00    +0.000 HD
BRANCH  15  18
ATOM     18  C   UNL     1      -5.184   6.410  -8.848  0.00  0.00    +0.000 C 
ATOM     19  C   UNL     1      -5.902   6.058  -9.921  0.00  0.00    +0.000 C 
ATOM     20  H   UNL     1      -5.707   6.819  -7.987  0.00  0.00    +0.000 HD
ATOM     21  H   UNL     1      -6.980   6.171  -9.923  0.00  0.00    +0.000 HD
ATOM     22  H   UNL     1      -5.430   5.652 -10.810  0.00  0.00    +0.000 HD
ENDBRANCH  15  18
ENDBRANCH   3  15
TORSDOF 2
ENDMDL
MODEL 4
REMARK VINA RESULT:    -5.572     14.159     15.658
REMARK INTER + INTRA:          -6.322
REMARK INTER:                  -6.155
REMARK INTRA:                  -0.167
REMARK UNBOUND:                -0.098
REMARK  Name = 5144
REMARK  2 active torsions:
REMARK  status: ('A' for Active; 'I' for Inactive)
REMARK    1  A    between atoms: C_3  and  C_7
REMARK    2  A    between atoms: C_7  and  C_11
REMARK                            x       y       z     vdW  Elec       q    Type
REMARK                         _______ _______ _______ _____ _____    ______ ____
ROOT
ATOM      1  O   UNL     1      -2.961   6.459 -10.261  0.00  0.00    +0.000 OA
ATOM      2  O   UNL     1      -3.108   8.343  -8.766  0.00  0.00    +0.000 OA
ATOM      3  C   UNL     1      -0.848   8.775 -12.166  0.00  0.00    +0.000 A 
ATOM      4  C   UNL     1      -2.250   7.529 -10.708  0.00  0.00    +0.000 A 
ATOM      5  C   UNL     1      -2.333   8.605  -9.854  0.00  0.00    +0.000 A 
ATOM      6  C   UNL     1      -1.514   7.583 -11.874  0.00  0.00    +0.000 A 
ATOM      7  C   UNL     1      -0.934   9.875 -11.294  0.00  0.00    +0.000 A 
ATOM      8  C   UNL     1      -1.685   9.794 -10.120  0.00  0.00    +0.000 A 
ATOM      9  C   UNL     1      -3.502   6.981  -9.031  0.00  0.00    +0.000 C 
ATOM     10  H   UNL     1      -1.460   6.725 -12.536  0.00  0.00    +0.000 HD
ATOM     11  H   UNL     1      -0.414  10.802 -11.526  0.00  0.00    +0.000 HD
ATOM     12  H   UNL     1      -1.754  10.640  -9.445  0.00  0.00    +0.000 HD
ATOM     13  H   UNL     1      -3.161   6.349  -8.201  0.00  0.00    +0.000 HD
ATOM     14  H   UNL     1      -4.596   6.937  -9.080  0.00  0.00    +0.000 HD
ENDROOT
BRANCH   3  15
ATOM     15  C   UNL     1      -0.039   8.885 -13.415  0.00  0.00    +0.000 C 
ATOM     16  H   UNL     1       1.015   8.668 -13.197  0.00  0.00    +0.000 HD
ATOM     17  H   UNL     1      -0.349   8.106 -14.123  0.00  0.00    +0.000 HD
BRANCH  15  18
ATOM     18  C   UNL     1      -0.122  10.248 -14.052  0.00  0.00    +0.000 C 
ATOM     19  C   UNL     1       0.737  10.701 -14.973  0.00  0.00    +0.000 C 
ATOM     20  H   UNL     1      -0.924  10.905 -13.724  0.00  0.00    +0.000 HD
ATOM     21  H   UNL     1       0.625  11.697 -15.386  0.00  0.00    +0.000 HD
ATOM     22  H   UNL     1       1.559  10.091 -15.330  0.00  0.00    +0.000 HD
ENDBRANCH  15  18
ENDBRANCH   3  15
TORSDOF 2
ENDMDL
MODEL 5
REMARK VINA RESULT:    -5.317     14.350     15.894
REMARK INTER + INTRA:          -6.037
REMARK INTER:                  -5.823
REMARK INTRA:                  -0.214
REMARK UNBOUND:                -0.098
REMARK  Name = 5144
REMARK  2 active torsions:
REMARK  status: ('A' for Active; 'I' for Inactive)
REMARK    1  A    between atoms: C_3  and  C_7
REMARK    2  A    between atoms: C_7  and  C_11
REMARK                            x       y       z     vdW  Elec       q    Type
REMARK                         _______ _______ _______ _____ _____    ______ ____
ROOT
ATOM      1  O   UNL     1     -12.095  12.031   5.628  0.00  0.00    +0.000 OA
ATOM      2  O   UNL     1     -11.973  10.483   7.471  0.00  0.00    +0.000 OA
ATOM      3  C   UNL     1      -8.492  11.354   5.477  0.00  0.00    +0.000 A 
ATOM      4  C   UNL     1     -10.830  11.576   5.838  0.00  0.00    +0.000 A 
ATOM      5  C   UNL     1     -10.760  10.691   6.890  0.00  0.00    +0.000 A 
ATOM      6  C   UNL     1      -9.711  11.927   5.110  0.00  0.00    +0.000 A 
ATOM      7  C   UNL     1      -8.421  10.451   6.552  0.00  0.00    +0.000 A 
ATOM      8  C   UNL     1      -9.568  10.111   7.273  0.00  0.00    +0.000 A 
ATOM      9  C   UNL     1     -12.814  11.334   6.666  0.00  0.00    +0.000 C 
ATOM     10  H   UNL     1      -9.784  12.627   4.284  0.00  0.00    +0.000 HD
ATOM     11  H   UNL     1      -7.469  10.007   6.836  0.00  0.00    +0.000 HD
ATOM     12  H   UNL     1      -9.517   9.415   8.103  0.00  0.00    +0.000 HD
ATOM     13  H   UNL     1     -13.593  10.719   6.200  0.00  0.00    +0.000 HD
ATOM     14  H   UNL     1     -13.292  12.073   7.320  0.00  0.00    +0.000 HD
ENDROOT
BRANCH   3  15
ATOM     15  C   UNL     1      -7.252  11.702   4.723  0.00  0.00    +0.000 C 
ATOM     16  H   UNL     1      -6.413  11.093   5.084  0.00  0.00    +0.000 HD
ATOM     17  H   UNL     1      -7.374  11.420   3.669  0.00  0.00    +0.000 HD
BRANCH  15  18
ATOM     18  C   UNL     1      -6.876  13.155   4.848  0.00  0.00    +0.000 C 
ATOM     19  C   UNL     1      -6.200  13.670   5.881  0.00  0.00    +0.000 C 
ATOM     20  H   UNL     1      -7.192  13.823   4.051  0.00  0.00    +0.000 HD
ATOM     21  H   UNL     1      -5.968  14.729   5.913  0.00  0.00    +0.000 HD
ATOM     22  H   UNL     1      -5.868  13.051   6.707  0.00  0.00    +0.000 HD
ENDBRANCH  15  18
ENDBRANCH   3  15
TORSDOF 2
ENDMDL
MODEL 6
REMARK VINA RESULT:    -5.245     13.601     15.615
REMARK INTER + INTRA:          -5.956
REMARK INTER:                  -5.792
REMARK INTRA:                  -0.164
REMARK UNBOUND:                -0.098
REMARK  Name = 5144
REMARK  2 active torsions:
REMARK  status: ('A' for Active; 'I' for Inactive)
REMARK    1  A    between atoms: C_3  and  C_7
REMARK    2  A    between atoms: C_7  and  C_11
REMARK                            x       y       z     vdW  Elec       q    Type
REMARK                         _______ _______ _______ _____ _____    ______ ____
ROOT
ATOM      1  O   UNL     1      -2.349   9.648  -9.118  0.00  0.00    +0.000 OA
ATOM      2  O   UNL     1      -3.117   7.364  -9.156  0.00  0.00    +0.000 OA
ATOM      3  C   UNL     1      -0.904   8.686 -12.351  0.00  0.00    +0.000 A 
ATOM      4  C   UNL     1      -1.959   8.990 -10.243  0.00  0.00    +0.000 A 
ATOM      5  C   UNL     1      -2.398   7.686 -10.265  0.00  0.00    +0.000 A 
ATOM      6  C   UNL     1      -1.209   9.521 -11.273  0.00  0.00    +0.000 A 
ATOM      7  C   UNL     1      -1.352   7.354 -12.372  0.00  0.00    +0.000 A 
ATOM      8  C   UNL     1      -2.110   6.841 -11.317  0.00  0.00    +0.000 A 
ATOM      9  C   UNL     1      -3.083   8.612  -8.434  0.00  0.00    +0.000 C 
ATOM     10  H   UNL     1      -0.871  10.551 -11.239  0.00  0.00    +0.000 HD
ATOM     11  H   UNL     1      -1.111   6.707 -13.213  0.00  0.00    +0.000 HD
ATOM     12  H   UNL     1      -2.456   5.813 -11.331  0.00  0.00    +0.000 HD
ATOM     13  H   UNL     1      -4.113   8.955  -8.278  0.00  0.00    +0.000 HD
ATOM     14  H   UNL     1      -2.618   8.438  -7.456  0.00  0.00    +0.000 HD
ENDROOT
BRANCH   3  15
ATOM     15  C   UNL     1      -0.096   9.212 -13.489  0.00  0.00    +0.000 C 
ATOM     16  H   UNL     1       0.936   9.390 -13.162  0.00  0.00    +0.000 HD
ATOM     17  H   UNL     1      -0.019   8.443 -14.269  0.00  0.00    +0.000 HD
BRANCH  15  18
ATOM     18  C   UNL     1      -0.644  10.495 -14.057  0.00  0.00    +0.000 C 
ATOM     19  C   UNL     1       0.078  11.608 -14.234  0.00  0.00    +0.000 C 
ATOM     20  H   UNL     1      -1.699  10.515 -14.321  0.00  0.00    +0.000 HD
ATOM     21  H   UNL     1      -0.381  12.502 -14.641  0.00  0.00    +0.000 HD
ATOM     22  H   UNL     1       1.132  11.646 -13.981  0.00  0.00    +0.000 HD
ENDBRANCH  15  18
ENDBRANCH   3  15
TORSDOF 2
ENDMDL
MODEL 7
REMARK VINA RESULT:    -5.125     13.472     14.695
REMARK INTER + INTRA:          -5.822
REMARK INTER:                  -5.724
REMARK INTRA:                  -0.098
REMARK UNBOUND:                -0.098
REMARK  Name = 5144
REMARK  2 active torsions:
REMARK  status: ('A' for Active; 'I' for Inactive)
REMARK    1  A    between atoms: C_3  and  C_7
REMARK    2  A    between atoms: C_7  and  C_11
REMARK                            x       y       z     vdW  Elec       q    Type
REMARK                         _______ _______ _______ _____ _____    ______ ____
ROOT
ATOM      1  O   UNL     1      -8.576  11.465   8.591  0.00  0.00    +0.000 OA
ATOM      2  O   UNL     1      -9.295   9.920   6.888  0.00  0.00    +0.000 OA
ATOM      3  C   UNL     1      -6.838  13.005   5.751  0.00  0.00    +0.000 A 
ATOM      4  C   UNL     1      -8.077  11.779   7.365  0.00  0.00    +0.000 A 
ATOM      5  C   UNL     1      -8.488  10.897   6.392  0.00  0.00    +0.000 A 
ATOM      6  C   UNL     1      -7.250  12.846   7.075  0.00  0.00    +0.000 A 
ATOM      7  C   UNL     1      -7.258  12.103   4.757  0.00  0.00    +0.000 A 
ATOM      8  C   UNL     1      -8.095  11.032   5.077  0.00  0.00    +0.000 A 
ATOM      9  C   UNL     1      -9.347  10.286   8.282  0.00  0.00    +0.000 C 
ATOM     10  H   UNL     1      -6.935  13.531   7.855  0.00  0.00    +0.000 HD
ATOM     11  H   UNL     1      -6.933  12.231   3.727  0.00  0.00    +0.000 HD
ATOM     12  H   UNL     1      -8.420  10.334   4.313  0.00  0.00    +0.000 HD
ATOM     13  H   UNL     1     -10.392  10.469   8.559  0.00  0.00    +0.000 HD
ATOM     14  H   UNL     1      -8.965   9.450   8.879  0.00  0.00    +0.000 HD
ENDROOT
BRANCH   3  15
ATOM     15  C   UNL     1      -5.944  14.142   5.385  0.00  0.00    +0.000 C 
ATOM     16  H   UNL     1      -5.219  14.320   6.190  0.00  0.00    +0.000 HD
ATOM     17  H   UNL     1      -5.337  13.865   4.513  0.00  0.00    +0.000 HD
BRANCH  15  18
ATOM     18  C   UNL     1      -6.694  15.422   5.127  0.00  0.00    +0.000 C 
ATOM     19  C   UNL     1      -7.966  15.478   4.714  0.00  0.00    +0.000 C 
ATOM     20  H   UNL     1      -6.156  16.355   5.273  0.00  0.00    +0.000 HD
ATOM     21  H   UNL     1      -8.445  16.434   4.539  0.00  0.00    +0.000 HD
ATOM     22  H   UNL     1      -8.547  14.578   4.545  0.00  0.00    +0.000 HD
ENDBRANCH  15  18
ENDBRANCH   3  15
TORSDOF 2
ENDMDL
MODEL 8
REMARK VINA RESULT:    -5.060     14.538     15.931
REMARK INTER + INTRA:          -5.750
REMARK INTER:                  -5.672
REMARK INTRA:                  -0.078
REMARK UNBOUND:                -0.098
REMARK  Name = 5144
REMARK  2 active torsions:
REMARK  status: ('A' for Active; 'I' for Inactive)
REMARK    1  A    between atoms: C_3  and  C_7
REMARK    2  A    between atoms: C_7  and  C_11
REMARK                            x       y       z     vdW  Elec       q    Type
REMARK                         _______ _______ _______ _____ _____    ______ ____
ROOT
ATOM      1  O   UNL     1      -3.978  10.082 -13.727  0.00  0.00    +0.000 OA
ATOM      2  O   UNL     1      -1.689  10.386 -14.415  0.00  0.00    +0.000 OA
ATOM      3  C   UNL     1      -2.403   9.621 -10.445  0.00  0.00    +0.000 A 
ATOM      4  C   UNL     1      -3.107   9.966 -12.689  0.00  0.00    +0.000 A 
ATOM      5  C   UNL     1      -1.799  10.140 -13.081  0.00  0.00    +0.000 A 
ATOM      6  C   UNL     1      -3.442   9.705 -11.375  0.00  0.00    +0.000 A 
ATOM      7  C   UNL     1      -1.068   9.798 -10.847  0.00  0.00    +0.000 A 
ATOM      8  C   UNL     1      -0.755  10.061 -12.182  0.00  0.00    +0.000 A 
ATOM      9  C   UNL     1      -3.073  10.348 -14.818  0.00  0.00    +0.000 C 
ATOM     10  H   UNL     1      -4.478   9.570 -11.084  0.00  0.00    +0.000 HD
ATOM     11  H   UNL     1      -0.262   9.730 -10.119  0.00  0.00    +0.000 HD
ATOM     12  H   UNL     1       0.274  10.198 -12.495  0.00  0.00    +0.000 HD
ATOM     13  H   UNL     1      -3.335  11.315 -15.264  0.00  0.00    +0.000 HD
ATOM     14  H   UNL     1      -3.196   9.565 -15.576  0.00  0.00    +0.000 HD
ENDROOT
BRANCH   3  15
ATOM     15  C   UNL     1      -2.712   9.340  -9.013  0.00  0.00    +0.000 C 
ATOM     16  H   UNL     1      -1.799   9.430  -8.410  0.00  0.00    +0.000 HD
ATOM     17  H   UNL     1      -3.386  10.115  -8.625  0.00  0.00    +0.000 HD
BRANCH  15  18
ATOM     18  C   UNL     1      -3.294   7.968  -8.794  0.00  0.00    +0.000 C 
ATOM     19  C   UNL     1      -2.983   6.894  -9.528  0.00  0.00    +0.000 C 
ATOM     20  H   UNL     1      -4.026   7.857  -7.997  0.00  0.00    +0.000 HD
ATOM     21  H   UNL     1      -3.445   5.935  -9.323  0.00  0.00    +0.000 HD
ATOM     22  H   UNL     1      -2.266   6.950 -10.340  0.00  0.00    +0.000 HD
ENDBRANCH  15  18
ENDBRANCH   3  15
TORSDOF 2
ENDMDL
MODEL 9
REMARK VINA RESULT:    -5.004     13.449     14.169
REMARK INTER + INTRA:          -5.687
REMARK INTER:                  -5.508
REMARK INTRA:                  -0.178
REMARK UNBOUND:                -0.098
REMARK  Name = 5144
REMARK  2 active torsions:
REMARK  status: ('A' for Active; 'I' for Inactive)
REMARK    1  A    between atoms: C_3  and  C_7
REMARK    2  A    between atoms: C_7  and  C_11
REMARK                            x       y       z     vdW  Elec       q    Type
REMARK                         _______ _______ _______ _____ _____    ______ ____
ROOT
ATOM      1  O   UNL     1      -7.192  14.305   7.404  0.00  0.00    +0.000 OA
ATOM      2  O   UNL     1      -6.624  14.258   5.063  0.00  0.00    +0.000 OA
ATOM      3  C   UNL     1      -8.357  10.903   6.673  0.00  0.00    +0.000 A 
ATOM      4  C   UNL     1      -7.514  13.120   6.818  0.00  0.00    +0.000 A 
ATOM      5  C   UNL     1      -7.189  13.093   5.481  0.00  0.00    +0.000 A 
ATOM      6  C   UNL     1      -8.100  12.039   7.444  0.00  0.00    +0.000 A 
ATOM      7  C   UNL     1      -8.025  10.876   5.307  0.00  0.00    +0.000 A 
ATOM      8  C   UNL     1      -7.433  11.984   4.697  0.00  0.00    +0.000 A 
ATOM      9  C   UNL     1      -6.629  15.021   6.286  0.00  0.00    +0.000 C 
ATOM     10  H   UNL     1      -8.350  12.078   8.499  0.00  0.00    +0.000 HD
ATOM     11  H   UNL     1      -8.229   9.990   4.709  0.00  0.00    +0.000 HD
ATOM     12  H   UNL     1      -7.177  11.967   3.643  0.00  0.00    +0.000 HD
ATOM     13  H   UNL     1      -5.596  15.298   6.532  0.00  0.00    +0.000 HD
ATOM     14  H   UNL     1      -7.210  15.937   6.126  0.00  0.00    +0.000 HD
ENDROOT
BRANCH   3  15
ATOM     15  C   UNL     1      -8.990   9.707   7.302  0.00  0.00    +0.000 C 
ATOM     16  H   UNL     1     -10.083   9.787   7.238  0.00  0.00    +0.000 HD
ATOM     17  H   UNL     1      -8.735   8.811   6.722  0.00  0.00    +0.000 HD
BRANCH  15  18
ATOM     18  C   UNL     1      -8.608   9.533   8.749  0.00  0.00    +0.000 C 
ATOM     19  C   UNL     1      -7.803   8.566   9.203  0.00  0.00    +0.000 C 
ATOM     20  H   UNL     1      -9.033  10.232   9.465  0.00  0.00    +0.000 HD
ATOM     21  H   UNL     1      -7.576   8.491  10.261  0.00  0.00    +0.000 HD
ATOM     22  H   UNL     1      -7.359   7.837   8.534  0.00  0.00    +0.000 HD
ENDBRANCH  15  18
ENDBRANCH   3  15
TORSDOF 2
ENDMDL
MODEL 10
REMARK VINA RESULT:    -4.965     18.034     19.158
REMARK INTER + INTRA:          -5.643
REMARK INTER:                  -5.446
REMARK INTRA:                  -0.197
REMARK UNBOUND:                -0.098
REMARK  Name = 5144
REMARK  2 active torsions:
REMARK  status: ('A' for Active; 'I' for Inactive)
REMARK    1  A    between atoms: C_3  and  C_7
REMARK    2  A    between atoms: C_7  and  C_11
REMARK                            x       y       z     vdW  Elec       q    Type
REMARK                         _______ _______ _______ _____ _____    ______ ____
ROOT
ATOM      1  O   UNL     1       0.353   0.644 -12.475  0.00  0.00    +0.000 OA
ATOM      2  O   UNL     1       0.001  -1.736 -12.327  0.00  0.00    +0.000 OA
ATOM      3  C   UNL     1       3.425  -0.424 -14.173  0.00  0.00    +0.000 A 
ATOM      4  C   UNL     1       1.366  -0.065 -13.042  0.00  0.00    +0.000 A 
ATOM      5  C   UNL     1       1.165  -1.424 -12.958  0.00  0.00    +0.000 A 
ATOM      6  C   UNL     1       2.488   0.467 -13.646  0.00  0.00    +0.000 A 
ATOM      7  C   UNL     1       3.220  -1.812 -14.086  0.00  0.00    +0.000 A 
ATOM      8  C   UNL     1       2.076  -2.325 -13.471  0.00  0.00    +0.000 A 
ATOM      9  C   UNL     1      -0.509  -0.421 -12.024  0.00  0.00    +0.000 C 
ATOM     10  H   UNL     1       2.631   1.541 -13.702  0.00  0.00    +0.000 HD
ATOM     11  H   UNL     1       3.953  -2.502 -14.498  0.00  0.00    +0.000 HD
ATOM     12  H   UNL     1       1.915  -3.395 -13.402  0.00  0.00    +0.000 HD
ATOM     13  H   UNL     1      -1.489  -0.306 -12.502  0.00  0.00    +0.000 HD
ATOM     14  H   UNL     1      -0.634  -0.336 -10.938  0.00  0.00    +0.000 HD
ENDROOT
BRANCH   3  15
ATOM     15  C   UNL     1       4.655   0.100 -14.835  0.00  0.00    +0.000 C 
ATOM     16  H   UNL     1       4.379   0.799 -15.635  0.00  0.00    +0.000 HD
ATOM     17  H   UNL     1       5.229   0.702 -14.118  0.00  0.00    +0.000 HD
BRANCH  15  18
ATOM     18  C   UNL     1       5.513  -0.987 -15.428  0.00  0.00    +0.000 C 
ATOM     19  C   UNL     1       5.858  -1.052 -16.719  0.00  0.00    +0.000 C 
ATOM     20  H   UNL     1       5.856  -1.773 -14.760  0.00  0.00    +0.000 HD
ATOM     21  H   UNL     1       6.472  -1.868 -17.083  0.00  0.00    +0.000 HD
ATOM     22  H   UNL     1       5.537  -0.299 -17.431  0.00  0.00    +0.000 HD
ENDBRANCH  15  18
ENDBRANCH   3  15
TORSDOF 2
ENDMDL
