MODEL 1
REMARK VINA RESULT:    -5.666      0.000      0.000
REMARK INTER + INTRA:          -6.637
REMARK INTER:                  -6.479
REMARK INTRA:                  -0.158
REMARK UNBOUND:                -0.142
REMARK  Name = 444539
REMARK  3 active torsions:
REMARK  status: ('A' for Active; 'I' for Inactive)
REMARK    1  A    between atoms: O_1  and  C_11
REMARK    2  A    between atoms: C_3  and  C_6
REMARK    3  A    between atoms: C_10  and  C_11
REMARK                            x       y       z     vdW  Elec       q    Type
REMARK                         _______ _______ _______ _____ _____    ______ ____
ROOT
ATOM      1  C   UNL     1      -1.657   8.692 -11.120  0.00  0.00    +0.000 A 
ATOM      2  C   UNL     1      -2.014   9.428  -9.990  0.00  0.00    +0.000 A 
ATOM      3  C   UNL     1      -2.067   7.365 -11.247  0.00  0.00    +0.000 A 
ATOM      4  C   UNL     1      -2.780   8.836  -8.987  0.00  0.00    +0.000 A 
ATOM      5  C   UNL     1      -2.833   6.774 -10.243  0.00  0.00    +0.000 A 
ATOM      6  C   UNL     1      -3.191   7.509  -9.113  0.00  0.00    +0.000 A 
ATOM      7  H   UNL     1      -1.699  10.455  -9.830  0.00  0.00    +0.000 HD
ATOM      8  H   UNL     1      -1.798   6.777 -12.121  0.00  0.00    +0.000 HD
ATOM      9  H   UNL     1      -3.054   9.406  -8.103  0.00  0.00    +0.000 HD
ATOM     10  H   UNL     1      -3.153   5.740 -10.341  0.00  0.00    +0.000 HD
ATOM     11  H   UNL     1      -3.787   7.048  -8.330  0.00  0.00    +0.000 HD
ENDROOT
BRANCH   1  12
ATOM     12  C   UNL     1      -0.859   9.309 -12.169  0.00  0.00    +0.000 C 
ATOM     13  C   UNL     1      -0.589   8.704 -13.321  0.00  0.00    +0.000 C 
ATOM     14  H   UNL     1      -0.477  10.305 -11.956  0.00  0.00    +0.000 HD
ATOM     15  H   UNL     1      -0.914   7.704 -13.581  0.00  0.00    +0.000 HD
BRANCH  13  17
ATOM     16  O   UNL     1       0.510  10.603 -14.319  0.00  0.00    +0.000 OA
ATOM     17  C   UNL     1       0.245   9.414 -14.314  0.00  0.00    +0.000 C 
BRANCH  17  18
ATOM     18  O   UNL     1       0.679   8.520 -15.233  0.00  0.00    +0.000 OA
ATOM     19  H   UNL     1       1.656   8.528 -15.320  0.00  0.00    +0.000 HD
ENDBRANCH  17  18
ENDBRANCH  13  17
ENDBRANCH   1  12
TORSDOF 3
ENDMDL
MODEL 2
REMARK VINA RESULT:    -5.298      1.806      2.490
REMARK INTER + INTRA:          -6.215
REMARK INTER:                  -6.044
REMARK INTRA:                  -0.170
REMARK UNBOUND:                -0.142
REMARK  Name = 444539
REMARK  3 active torsions:
REMARK  status: ('A' for Active; 'I' for Inactive)
REMARK    1  A    between atoms: O_1  and  C_11
REMARK    2  A    between atoms: C_3  and  C_6
REMARK    3  A    between atoms: C_10  and  C_11
REMARK                            x       y       z     vdW  Elec       q    Type
REMARK                         _______ _______ _______ _____ _____    ______ ____
ROOT
ATOM      1  C   UNL     1      -3.212   7.102 -10.756  0.00  0.00    +0.000 A 
ATOM      2  C   UNL     1      -3.203   6.874  -9.379  0.00  0.00    +0.000 A 
ATOM      3  C   UNL     1      -4.373   6.872 -11.493  0.00  0.00    +0.000 A 
ATOM      4  C   UNL     1      -4.355   6.416  -8.742  0.00  0.00    +0.000 A 
ATOM      5  C   UNL     1      -5.525   6.414 -10.855  0.00  0.00    +0.000 A 
ATOM      6  C   UNL     1      -5.517   6.186  -9.479  0.00  0.00    +0.000 A 
ATOM      7  H   UNL     1      -2.320   7.012  -8.763  0.00  0.00    +0.000 HD
ATOM      8  H   UNL     1      -4.398   7.045 -12.567  0.00  0.00    +0.000 HD
ATOM      9  H   UNL     1      -4.348   6.232  -7.671  0.00  0.00    +0.000 HD
ATOM     10  H   UNL     1      -6.430   6.235 -11.430  0.00  0.00    +0.000 HD
ATOM     11  H   UNL     1      -6.414   5.828  -8.982  0.00  0.00    +0.000 HD
ENDROOT
BRANCH   1  12
ATOM     12  C   UNL     1      -2.011   7.582 -11.422  0.00  0.00    +0.000 C 
ATOM     13  C   UNL     1      -1.915   7.698 -12.743  0.00  0.00    +0.000 C 
ATOM     14  H   UNL     1      -1.174   7.837 -10.775  0.00  0.00    +0.000 HD
ATOM     15  H   UNL     1      -2.698   7.433 -13.441  0.00  0.00    +0.000 HD
BRANCH  13  17
ATOM     16  O   UNL     1      -0.417   8.399 -14.497  0.00  0.00    +0.000 OA
ATOM     17  C   UNL     1      -0.643   8.181 -13.319  0.00  0.00    +0.000 C 
BRANCH  17  18
ATOM     18  O   UNL     1       0.251   8.349 -12.316  0.00  0.00    +0.000 OA
ATOM     19  H   UNL     1       1.153   8.532 -12.655  0.00  0.00    +0.000 HD
ENDBRANCH  17  18
ENDBRANCH  13  17
ENDBRANCH   1  12
TORSDOF 3
ENDMDL
MODEL 3
REMARK VINA RESULT:    -5.292     27.470     28.778
REMARK INTER + INTRA:          -6.208
REMARK INTER:                  -6.049
REMARK INTRA:                  -0.159
REMARK UNBOUND:                -0.142
REMARK  Name = 444539
REMARK  3 active torsions:
REMARK  status: ('A' for Active; 'I' for Inactive)
REMARK    1  A    between atoms: O_1  and  C_11
REMARK    2  A    between atoms: C_3  and  C_6
REMARK    3  A    between atoms: C_10  and  C_11
REMARK                            x       y       z     vdW  Elec       q    Type
REMARK                         _______ _______ _______ _____ _____    ______ ____
ROOT
ATOM      1  C   UNL     1     -20.354  -3.898   4.829  0.00  0.00    +0.000 A 
ATOM      2  C   UNL     1     -20.752  -3.378   3.596  0.00  0.00    +0.000 A 
ATOM      3  C   UNL     1     -19.395  -4.907   4.884  0.00  0.00    +0.000 A 
ATOM      4  C   UNL     1     -20.189  -3.871   2.420  0.00  0.00    +0.000 A 
ATOM      5  C   UNL     1     -18.833  -5.400   3.707  0.00  0.00    +0.000 A 
ATOM      6  C   UNL     1     -19.229  -4.882   2.474  0.00  0.00    +0.000 A 
ATOM      7  H   UNL     1     -21.512  -2.610   3.496  0.00  0.00    +0.000 HD
ATOM      8  H   UNL     1     -19.073  -5.323   5.836  0.00  0.00    +0.000 HD
ATOM      9  H   UNL     1     -20.501  -3.473   1.458  0.00  0.00    +0.000 HD
ATOM     10  H   UNL     1     -18.085  -6.187   3.750  0.00  0.00    +0.000 HD
ATOM     11  H   UNL     1     -18.792  -5.266   1.557  0.00  0.00    +0.000 HD
ENDROOT
BRANCH   1  12
ATOM     12  C   UNL     1     -20.939  -3.382   6.058  0.00  0.00    +0.000 C 
ATOM     13  C   UNL     1     -20.708  -2.153   6.506  0.00  0.00    +0.000 C 
ATOM     14  H   UNL     1     -21.577  -4.069   6.609  0.00  0.00    +0.000 HD
ATOM     15  H   UNL     1     -20.061  -1.432   6.022  0.00  0.00    +0.000 HD
BRANCH  13  17
ATOM     16  O   UNL     1     -21.332  -0.612   8.253  0.00  0.00    +0.000 OA
ATOM     17  C   UNL     1     -21.339  -1.734   7.776  0.00  0.00    +0.000 C 
BRANCH  17  18
ATOM     18  O   UNL     1     -21.940  -2.810   8.337  0.00  0.00    +0.000 OA
ATOM     19  H   UNL     1     -22.276  -3.436   7.660  0.00  0.00    +0.000 HD
ENDBRANCH  17  18
ENDBRANCH  13  17
ENDBRANCH   1  12
TORSDOF 3
ENDMDL
MODEL 4
REMARK VINA RESULT:    -5.218      9.163      9.610
REMARK INTER + INTRA:          -6.123
REMARK INTER:                  -5.978
REMARK INTRA:                  -0.145
REMARK UNBOUND:                -0.142
REMARK  Name = 444539
REMARK  3 active torsions:
REMARK  status: ('A' for Active; 'I' for Inactive)
REMARK    1  A    between atoms: O_1  and  C_11
REMARK    2  A    between atoms: C_3  and  C_6
REMARK    3  A    between atoms: C_10  and  C_11
REMARK                            x       y       z     vdW  Elec       q    Type
REMARK                         _______ _______ _______ _____ _____    ______ ____
ROOT
ATOM      1  C   UNL     1      -1.714  -0.394 -11.470  0.00  0.00    +0.000 A 
ATOM      2  C   UNL     1      -2.754  -0.359 -12.399  0.00  0.00    +0.000 A 
ATOM      3  C   UNL     1      -1.996  -0.517 -10.111  0.00  0.00    +0.000 A 
ATOM      4  C   UNL     1      -4.077  -0.447 -11.967  0.00  0.00    +0.000 A 
ATOM      5  C   UNL     1      -3.320  -0.606  -9.679  0.00  0.00    +0.000 A 
ATOM      6  C   UNL     1      -4.360  -0.571 -10.607  0.00  0.00    +0.000 A 
ATOM      7  H   UNL     1      -2.590  -0.238 -13.466  0.00  0.00    +0.000 HD
ATOM      8  H   UNL     1      -1.198  -0.547  -9.372  0.00  0.00    +0.000 HD
ATOM      9  H   UNL     1      -4.888  -0.414 -12.689  0.00  0.00    +0.000 HD
ATOM     10  H   UNL     1      -3.540  -0.702  -8.620  0.00  0.00    +0.000 HD
ATOM     11  H   UNL     1      -5.391  -0.638 -10.271  0.00  0.00    +0.000 HD
ENDROOT
BRANCH   1  12
ATOM     12  C   UNL     1      -0.333  -0.305 -11.920  0.00  0.00    +0.000 C 
ATOM     13  C   UNL     1       0.246  -1.242 -12.664  0.00  0.00    +0.000 C 
ATOM     14  H   UNL     1       0.218   0.578 -11.603  0.00  0.00    +0.000 HD
ATOM     15  H   UNL     1      -0.237  -2.156 -12.987  0.00  0.00    +0.000 HD
BRANCH  13  17
ATOM     16  O   UNL     1       2.152  -0.067 -13.557  0.00  0.00    +0.000 OA
ATOM     17  C   UNL     1       1.660  -1.062 -13.054  0.00  0.00    +0.000 C 
BRANCH  17  18
ATOM     18  O   UNL     1       2.339  -2.195 -12.757  0.00  0.00    +0.000 OA
ATOM     19  H   UNL     1       2.058  -2.948 -13.319  0.00  0.00    +0.000 HD
ENDBRANCH  17  18
ENDBRANCH  13  17
ENDBRANCH   1  12
TORSDOF 3
ENDMDL
MODEL 5
REMARK VINA RESULT:    -5.190     19.289     21.205
REMARK INTER + INTRA:          -6.091
REMARK INTER:                  -5.944
REMARK INTRA:                  -0.148
REMARK UNBOUND:                -0.142
REMARK  Name = 444539
REMARK  3 active torsions:
REMARK  status: ('A' for Active; 'I' for Inactive)
REMARK    1  A    between atoms: O_1  and  C_11
REMARK    2  A    between atoms: C_3  and  C_6
REMARK    3  A    between atoms: C_10  and  C_11
REMARK                            x       y       z     vdW  Elec       q    Type
REMARK                         _______ _______ _______ _____ _____    ______ ____
ROOT
ATOM      1  C   UNL     1      -8.128  11.369   6.838  0.00  0.00    +0.000 A 
ATOM      2  C   UNL     1      -7.514  12.558   7.233  0.00  0.00    +0.000 A 
ATOM      3  C   UNL     1      -8.070  10.963   5.506  0.00  0.00    +0.000 A 
ATOM      4  C   UNL     1      -6.843  13.340   6.294  0.00  0.00    +0.000 A 
ATOM      5  C   UNL     1      -7.399  11.746   4.567  0.00  0.00    +0.000 A 
ATOM      6  C   UNL     1      -6.785  12.934   4.961  0.00  0.00    +0.000 A 
ATOM      7  H   UNL     1      -7.551  12.933   8.252  0.00  0.00    +0.000 HD
ATOM      8  H   UNL     1      -8.542  10.039   5.181  0.00  0.00    +0.000 HD
ATOM      9  H   UNL     1      -6.369  14.269   6.598  0.00  0.00    +0.000 HD
ATOM     10  H   UNL     1      -7.354  11.429   3.529  0.00  0.00    +0.000 HD
ATOM     11  H   UNL     1      -6.263  13.545   4.229  0.00  0.00    +0.000 HD
ENDROOT
BRANCH   1  12
ATOM     12  C   UNL     1      -8.827  10.551   7.818  0.00  0.00    +0.000 C 
ATOM     13  C   UNL     1      -8.228  10.039   8.889  0.00  0.00    +0.000 C 
ATOM     14  H   UNL     1      -9.880  10.364   7.623  0.00  0.00    +0.000 HD
ATOM     15  H   UNL     1      -7.178  10.162   9.125  0.00  0.00    +0.000 HD
BRANCH  13  17
ATOM     16  O   UNL     1     -10.233   9.255   9.974  0.00  0.00    +0.000 OA
ATOM     17  C   UNL     1      -9.026   9.207   9.814  0.00  0.00    +0.000 C 
BRANCH  17  18
ATOM     18  O   UNL     1      -8.191   8.366  10.469  0.00  0.00    +0.000 OA
ATOM     19  H   UNL     1      -8.669   7.597  10.849  0.00  0.00    +0.000 HD
ENDBRANCH  17  18
ENDBRANCH  13  17
ENDBRANCH   1  12
TORSDOF 3
ENDMDL
MODEL 6
REMARK VINA RESULT:    -5.099     27.357     28.203
REMARK INTER + INTRA:          -5.987
REMARK INTER:                  -5.833
REMARK INTRA:                  -0.154
REMARK UNBOUND:                -0.142
REMARK  Name = 444539
REMARK  3 active torsions:
REMARK  status: ('A' for Active; 'I' for Inactive)
REMARK    1  A    between atoms: O_1  and  C_11
REMARK    2  A    between atoms: C_3  and  C_6
REMARK    3  A    between atoms: C_10  and  C_11
REMARK                            x       y       z     vdW  Elec       q    Type
REMARK                         _______ _______ _______ _____ _____    ______ ____
ROOT
ATOM      1  C   UNL     1     -20.790  -2.407   4.956  0.00  0.00    +0.000 A 
ATOM      2  C   UNL     1     -20.845  -2.811   6.291  0.00  0.00    +0.000 A 
ATOM      3  C   UNL     1     -20.637  -1.058   4.641  0.00  0.00    +0.000 A 
ATOM      4  C   UNL     1     -20.749  -1.863   7.309  0.00  0.00    +0.000 A 
ATOM      5  C   UNL     1     -20.541  -0.110   5.661  0.00  0.00    +0.000 A 
ATOM      6  C   UNL     1     -20.596  -0.513   6.995  0.00  0.00    +0.000 A 
ATOM      7  H   UNL     1     -20.989  -3.844   6.590  0.00  0.00    +0.000 HD
ATOM      8  H   UNL     1     -20.591  -0.725   3.607  0.00  0.00    +0.000 HD
ATOM      9  H   UNL     1     -20.798  -2.175   8.349  0.00  0.00    +0.000 HD
ATOM     10  H   UNL     1     -20.422   0.941   5.415  0.00  0.00    +0.000 HD
ATOM     11  H   UNL     1     -20.523   0.225   7.789  0.00  0.00    +0.000 HD
ENDROOT
BRANCH   1  12
ATOM     12  C   UNL     1     -20.888  -3.395   3.893  0.00  0.00    +0.000 C 
ATOM     13  C   UNL     1     -20.467  -4.648   4.031  0.00  0.00    +0.000 C 
ATOM     14  H   UNL     1     -21.320  -3.049   2.956  0.00  0.00    +0.000 HD
ATOM     15  H   UNL     1     -20.001  -5.046   4.924  0.00  0.00    +0.000 HD
BRANCH  13  17
ATOM     16  O   UNL     1     -21.587  -5.724   2.187  0.00  0.00    +0.000 OA
ATOM     17  C   UNL     1     -20.598  -5.568   2.881  0.00  0.00    +0.000 C 
BRANCH  17  18
ATOM     18  O   UNL     1     -19.424  -6.223   2.715  0.00  0.00    +0.000 OA
ATOM     19  H   UNL     1     -18.669  -5.723   3.091  0.00  0.00    +0.000 HD
ENDBRANCH  17  18
ENDBRANCH  13  17
ENDBRANCH   1  12
TORSDOF 3
ENDMDL
MODEL 7
REMARK VINA RESULT:    -5.086     27.708     29.287
REMARK INTER + INTRA:          -5.972
REMARK INTER:                  -5.806
REMARK INTRA:                  -0.166
REMARK UNBOUND:                -0.142
REMARK  Name = 444539
REMARK  3 active torsions:
REMARK  status: ('A' for Active; 'I' for Inactive)
REMARK    1  A    between atoms: O_1  and  C_11
REMARK    2  A    between atoms: C_3  and  C_6
REMARK    3  A    between atoms: C_10  and  C_11
REMARK                            x       y       z     vdW  Elec       q    Type
REMARK                         _______ _______ _______ _____ _____    ______ ____
ROOT
ATOM      1  C   UNL     1     -21.556  -2.963   6.249  0.00  0.00    +0.000 A 
ATOM      2  C   UNL     1     -21.577  -2.254   7.450  0.00  0.00    +0.000 A 
ATOM      3  C   UNL     1     -22.675  -2.960   5.416  0.00  0.00    +0.000 A 
ATOM      4  C   UNL     1     -22.719  -1.543   7.818  0.00  0.00    +0.000 A 
ATOM      5  C   UNL     1     -23.816  -2.248   5.786  0.00  0.00    +0.000 A 
ATOM      6  C   UNL     1     -23.838  -1.539   6.986  0.00  0.00    +0.000 A 
ATOM      7  H   UNL     1     -20.744  -2.245   8.146  0.00  0.00    +0.000 HD
ATOM      8  H   UNL     1     -22.676  -3.506   4.476  0.00  0.00    +0.000 HD
ATOM      9  H   UNL     1     -22.739  -0.995   8.756  0.00  0.00    +0.000 HD
ATOM     10  H   UNL     1     -24.688  -2.245   5.137  0.00  0.00    +0.000 HD
ATOM     11  H   UNL     1     -24.728  -0.985   7.274  0.00  0.00    +0.000 HD
ENDROOT
BRANCH   1  12
ATOM     12  C   UNL     1     -20.365  -3.704   5.862  0.00  0.00    +0.000 C 
ATOM     13  C   UNL     1     -20.302  -4.445   4.760  0.00  0.00    +0.000 C 
ATOM     14  H   UNL     1     -19.515  -3.630   6.537  0.00  0.00    +0.000 HD
ATOM     15  H   UNL     1     -21.120  -4.583   4.064  0.00  0.00    +0.000 HD
BRANCH  13  17
ATOM     16  O   UNL     1     -18.543  -5.333   3.371  0.00  0.00    +0.000 OA
ATOM     17  C   UNL     1     -19.048  -5.171   4.468  0.00  0.00    +0.000 C 
BRANCH  17  18
ATOM     18  O   UNL     1     -18.536  -5.637   5.632  0.00  0.00    +0.000 OA
ATOM     19  H   UNL     1     -18.767  -6.578   5.783  0.00  0.00    +0.000 HD
ENDBRANCH  17  18
ENDBRANCH  13  17
ENDBRANCH   1  12
TORSDOF 3
ENDMDL
MODEL 8
REMARK VINA RESULT:    -5.060     27.126     27.915
REMARK INTER + INTRA:          -5.942
REMARK INTER:                  -5.789
REMARK INTRA:                  -0.153
REMARK UNBOUND:                -0.142
REMARK  Name = 444539
REMARK  3 active torsions:
REMARK  status: ('A' for Active; 'I' for Inactive)
REMARK    1  A    between atoms: O_1  and  C_11
REMARK    2  A    between atoms: C_3  and  C_6
REMARK    3  A    between atoms: C_10  and  C_11
REMARK                            x       y       z     vdW  Elec       q    Type
REMARK                         _______ _______ _______ _____ _____    ______ ____
ROOT
ATOM      1  C   UNL     1      13.913  -3.571   8.638  0.00  0.00    +0.000 A 
ATOM      2  C   UNL     1      12.603  -3.127   8.449  0.00  0.00    +0.000 A 
ATOM      3  C   UNL     1      14.492  -3.516   9.905  0.00  0.00    +0.000 A 
ATOM      4  C   UNL     1      11.875  -2.627   9.529  0.00  0.00    +0.000 A 
ATOM      5  C   UNL     1      13.763  -3.016  10.984  0.00  0.00    +0.000 A 
ATOM      6  C   UNL     1      12.455  -2.572  10.796  0.00  0.00    +0.000 A 
ATOM      7  H   UNL     1      12.114  -3.124   7.480  0.00  0.00    +0.000 HD
ATOM      8  H   UNL     1      15.511  -3.859  10.071  0.00  0.00    +0.000 HD
ATOM      9  H   UNL     1      10.858  -2.276   9.382  0.00  0.00    +0.000 HD
ATOM     10  H   UNL     1      14.215  -2.973  11.971  0.00  0.00    +0.000 HD
ATOM     11  H   UNL     1      11.887  -2.181  11.636  0.00  0.00    +0.000 HD
ENDROOT
BRANCH   1  12
ATOM     12  C   UNL     1      14.672  -4.095   7.513  0.00  0.00    +0.000 C 
ATOM     13  C   UNL     1      14.510  -3.660   6.268  0.00  0.00    +0.000 C 
ATOM     14  H   UNL     1      15.385  -4.884   7.743  0.00  0.00    +0.000 HD
ATOM     15  H   UNL     1      13.798  -2.901   5.969  0.00  0.00    +0.000 HD
BRANCH  13  17
ATOM     16  O   UNL     1      15.361  -5.454   4.900  0.00  0.00    +0.000 OA
ATOM     17  C   UNL     1      15.322  -4.272   5.195  0.00  0.00    +0.000 C 
BRANCH  17  18
ATOM     18  O   UNL     1      16.028  -3.297   4.576  0.00  0.00    +0.000 OA
ATOM     19  H   UNL     1      15.950  -3.351   3.600  0.00  0.00    +0.000 HD
ENDBRANCH  17  18
ENDBRANCH  13  17
ENDBRANCH   1  12
TORSDOF 3
ENDMDL
MODEL 9
REMARK VINA RESULT:    -5.004      6.129      7.715
REMARK INTER + INTRA:          -5.878
REMARK INTER:                  -5.713
REMARK INTRA:                  -0.165
REMARK UNBOUND:                -0.142
REMARK  Name = 444539
REMARK  3 active torsions:
REMARK  status: ('A' for Active; 'I' for Inactive)
REMARK    1  A    between atoms: O_1  and  C_11
REMARK    2  A    between atoms: C_3  and  C_6
REMARK    3  A    between atoms: C_10  and  C_11
REMARK                            x       y       z     vdW  Elec       q    Type
REMARK                         _______ _______ _______ _____ _____    ______ ____
ROOT
ATOM      1  C   UNL     1      -5.081   6.236  -9.380  0.00  0.00    +0.000 A 
ATOM      2  C   UNL     1      -3.789   6.602  -9.001  0.00  0.00    +0.000 A 
ATOM      3  C   UNL     1      -5.494   6.404 -10.701  0.00  0.00    +0.000 A 
ATOM      4  C   UNL     1      -2.912   7.138  -9.945  0.00  0.00    +0.000 A 
ATOM      5  C   UNL     1      -4.617   6.939 -11.644  0.00  0.00    +0.000 A 
ATOM      6  C   UNL     1      -3.326   7.306 -11.266  0.00  0.00    +0.000 A 
ATOM      7  H   UNL     1      -3.425   6.516  -7.982  0.00  0.00    +0.000 HD
ATOM      8  H   UNL     1      -6.497   6.123 -11.015  0.00  0.00    +0.000 HD
ATOM      9  H   UNL     1      -1.908   7.430  -9.650  0.00  0.00    +0.000 HD
ATOM     10  H   UNL     1      -4.939   7.071 -12.673  0.00  0.00    +0.000 HD
ATOM     11  H   UNL     1      -2.643   7.725 -12.000  0.00  0.00    +0.000 HD
ENDROOT
BRANCH   1  12
ATOM     12  C   UNL     1      -5.995   5.675  -8.398  0.00  0.00    +0.000 C 
ATOM     13  C   UNL     1      -7.278   6.017  -8.328  0.00  0.00    +0.000 C 
ATOM     14  H   UNL     1      -5.569   4.956  -7.702  0.00  0.00    +0.000 HD
ATOM     15  H   UNL     1      -7.756   6.746  -8.970  0.00  0.00    +0.000 HD
BRANCH  13  17
ATOM     16  O   UNL     1      -9.295   5.631  -7.064  0.00  0.00    +0.000 OA
ATOM     17  C   UNL     1      -8.118   5.398  -7.281  0.00  0.00    +0.000 C 
BRANCH  17  18
ATOM     18  O   UNL     1      -7.363   4.515  -6.585  0.00  0.00    +0.000 OA
ATOM     19  H   UNL     1      -6.487   4.373  -7.003  0.00  0.00    +0.000 HD
ENDBRANCH  17  18
ENDBRANCH  13  17
ENDBRANCH   1  12
TORSDOF 3
ENDMDL
MODEL 10
REMARK VINA RESULT:    -4.740     19.484     21.177
REMARK INTER + INTRA:          -5.575
REMARK INTER:                  -5.433
REMARK INTRA:                  -0.142
REMARK UNBOUND:                -0.142
REMARK  Name = 444539
REMARK  3 active torsions:
REMARK  status: ('A' for Active; 'I' for Inactive)
REMARK    1  A    between atoms: O_1  and  C_11
REMARK    2  A    between atoms: C_3  and  C_6
REMARK    3  A    between atoms: C_10  and  C_11
REMARK                            x       y       z     vdW  Elec       q    Type
REMARK                         _______ _______ _______ _____ _____    ______ ____
ROOT
ATOM      1  C   UNL     1      -8.920  10.599   6.665  0.00  0.00    +0.000 A 
ATOM      2  C   UNL     1      -7.985  10.965   5.697  0.00  0.00    +0.000 A 
ATOM      3  C   UNL     1     -10.225  11.083   6.593  0.00  0.00    +0.000 A 
ATOM      4  C   UNL     1      -8.356  11.817   4.658  0.00  0.00    +0.000 A 
ATOM      5  C   UNL     1     -10.596  11.936   5.553  0.00  0.00    +0.000 A 
ATOM      6  C   UNL     1      -9.662  12.303   4.584  0.00  0.00    +0.000 A 
ATOM      7  H   UNL     1      -6.950  10.637   5.721  0.00  0.00    +0.000 HD
ATOM      8  H   UNL     1     -10.968  10.808   7.338  0.00  0.00    +0.000 HD
ATOM      9  H   UNL     1      -7.627  12.109   3.906  0.00  0.00    +0.000 HD
ATOM     10  H   UNL     1     -11.613  12.314   5.496  0.00  0.00    +0.000 HD
ATOM     11  H   UNL     1      -9.950  12.967   3.775  0.00  0.00    +0.000 HD
ENDROOT
BRANCH   1  12
ATOM     12  C   UNL     1      -8.535   9.708   7.749  0.00  0.00    +0.000 C 
ATOM     13  C   UNL     1      -8.071  10.148   8.914  0.00  0.00    +0.000 C 
ATOM     14  H   UNL     1      -8.636   8.643   7.552  0.00  0.00    +0.000 HD
ATOM     15  H   UNL     1      -7.918  11.191   9.161  0.00  0.00    +0.000 HD
BRANCH  13  17
ATOM     16  O   UNL     1      -8.316   8.155  10.249  0.00  0.00    +0.000 OA
ATOM     17  C   UNL     1      -7.692   9.156   9.943  0.00  0.00    +0.000 C 
BRANCH  17  18
ATOM     18  O   UNL     1      -6.521   9.540  10.503  0.00  0.00    +0.000 OA
ATOM     19  H   UNL     1      -6.008  10.132   9.912  0.00  0.00    +0.000 HD
ENDBRANCH  17  18
ENDBRANCH  13  17
ENDBRANCH   1  12
TORSDOF 3
ENDMDL
