MODEL 1
REMARK VINA RESULT:    -5.017      0.000      0.000
REMARK INTER + INTRA:          -5.977
REMARK INTER:                  -5.906
REMARK INTRA:                  -0.071
REMARK UNBOUND:                -0.080
REMARK  Name = 1183
REMARK  4 active torsions:
REMARK  status: ('A' for Active; 'I' for Inactive)
REMARK    1  A    between atoms: O_1  and  C_4
REMARK    2  A    between atoms: O_1  and  C_11
REMARK    3  A    between atoms: O_2  and  C_7
REMARK    4  A    between atoms: C_5  and  C_10
REMARK                            x       y       z     vdW  Elec       q    Type
REMARK                         _______ _______ _______ _____ _____    ______ ____
ROOT
ATOM      1  C   UNL     1       6.542   8.848   0.398  0.00  0.00    +0.000 A 
ATOM      2  C   UNL     1       5.410  10.948   0.010  0.00  0.00    +0.000 A 
ATOM      3  C   UNL     1       5.508   9.737   0.696  0.00  0.00    +0.000 A 
ATOM      4  C   UNL     1       7.476   9.170  -0.586  0.00  0.00    +0.000 A 
ATOM      5  C   UNL     1       6.345  11.269  -0.974  0.00  0.00    +0.000 A 
ATOM      6  C   UNL     1       7.378  10.381  -1.272  0.00  0.00    +0.000 A 
ATOM      7  H   UNL     1       4.754   9.538   1.451  0.00  0.00    +0.000 HD
ATOM      8  H   UNL     1       6.288  12.207  -1.522  0.00  0.00    +0.000 HD
ATOM      9  H   UNL     1       8.099  10.644  -2.041  0.00  0.00    +0.000 HD
ENDROOT
BRANCH   2  11
ATOM     10  O   UNL     1       3.405  11.597   1.085  0.00  0.00    +0.000 OA
ATOM     11  C   UNL     1       4.333  11.874   0.320  0.00  0.00    +0.000 C 
ATOM     12  H   UNL     1       4.374  12.864  -0.166  0.00  0.00    +0.000 HD
ENDBRANCH   2  11
BRANCH   4  13
ATOM     13  O   UNL     1       8.490   8.311  -0.886  0.00  0.00    +0.000 OA
ATOM     14  H   UNL     1       9.225   8.813  -1.279  0.00  0.00    +0.000 HD
ENDBRANCH   4  13
BRANCH   1  15
ATOM     15  O   UNL     1       6.627   7.669   1.075  0.00  0.00    +0.000 OA
BRANCH  15  16
ATOM     16  C   UNL     1       6.264   7.686   2.454  0.00  0.00    +0.000 C 
ATOM     17  H   UNL     1       6.670   6.821   2.990  0.00  0.00    +0.000 HD
ATOM     18  H   UNL     1       5.181   7.789   2.585  0.00  0.00    +0.000 HD
ATOM     19  H   UNL     1       6.723   8.577   2.896  0.00  0.00    +0.000 HD
ENDBRANCH  15  16
ENDBRANCH   1  15
TORSDOF 4
ENDMDL
MODEL 2
REMARK VINA RESULT:    -4.957     13.648     14.303
REMARK INTER + INTRA:          -5.906
REMARK INTER:                  -5.827
REMARK INTRA:                  -0.079
REMARK UNBOUND:                -0.080
REMARK  Name = 1183
REMARK  4 active torsions:
REMARK  status: ('A' for Active; 'I' for Inactive)
REMARK    1  A    between atoms: O_1  and  C_4
REMARK    2  A    between atoms: O_1  and  C_11
REMARK    3  A    between atoms: O_2  and  C_7
REMARK    4  A    between atoms: C_5  and  C_10
REMARK                            x       y       z     vdW  Elec       q    Type
REMARK                         _______ _______ _______ _____ _____    ______ ____
ROOT
ATOM      1  C   UNL     1      -1.794   7.730 -11.266  0.00  0.00    +0.000 A 
ATOM      2  C   UNL     1      -3.299   7.339  -9.417  0.00  0.00    +0.000 A 
ATOM      3  C   UNL     1      -2.685   6.897 -10.588  0.00  0.00    +0.000 A 
ATOM      4  C   UNL     1      -1.518   9.005 -10.772  0.00  0.00    +0.000 A 
ATOM      5  C   UNL     1      -3.023   8.614  -8.923  0.00  0.00    +0.000 A 
ATOM      6  C   UNL     1      -2.133   9.447  -9.600  0.00  0.00    +0.000 A 
ATOM      7  H   UNL     1      -2.936   5.897 -10.927  0.00  0.00    +0.000 HD
ATOM      8  H   UNL     1      -3.490   8.980  -8.012  0.00  0.00    +0.000 HD
ATOM      9  H   UNL     1      -1.927  10.438  -9.205  0.00  0.00    +0.000 HD
ENDROOT
BRANCH   2  11
ATOM     10  O   UNL     1      -5.344   6.180  -9.147  0.00  0.00    +0.000 OA
ATOM     11  C   UNL     1      -4.227   6.471  -8.710  0.00  0.00    +0.000 C 
ATOM     12  H   UNL     1      -3.890   6.068  -7.740  0.00  0.00    +0.000 HD
ENDBRANCH   2  11
BRANCH   4  13
ATOM     13  O   UNL     1      -0.651   9.828 -11.425  0.00  0.00    +0.000 OA
ATOM     14  H   UNL     1      -0.829   9.783 -12.380  0.00  0.00    +0.000 HD
ENDBRANCH   4  13
BRANCH   1  15
ATOM     15  O   UNL     1      -1.200   7.287 -12.409  0.00  0.00    +0.000 OA
BRANCH  15  16
ATOM     16  C   UNL     1      -2.045   7.076 -13.539  0.00  0.00    +0.000 C 
ATOM     17  H   UNL     1      -2.476   8.014 -13.902  0.00  0.00    +0.000 HD
ATOM     18  H   UNL     1      -2.807   6.315 -13.337  0.00  0.00    +0.000 HD
ATOM     19  H   UNL     1      -1.413   6.685 -14.344  0.00  0.00    +0.000 HD
ENDBRANCH  15  16
ENDBRANCH   1  15
TORSDOF 4
ENDMDL
MODEL 3
REMARK VINA RESULT:    -4.895      1.987      2.804
REMARK INTER + INTRA:          -5.833
REMARK INTER:                  -5.756
REMARK INTRA:                  -0.077
REMARK UNBOUND:                -0.080
REMARK  Name = 1183
REMARK  4 active torsions:
REMARK  status: ('A' for Active; 'I' for Inactive)
REMARK    1  A    between atoms: O_1  and  C_4
REMARK    2  A    between atoms: O_1  and  C_11
REMARK    3  A    between atoms: O_2  and  C_7
REMARK    4  A    between atoms: C_5  and  C_10
REMARK                            x       y       z     vdW  Elec       q    Type
REMARK                         _______ _______ _______ _____ _____    ______ ____
ROOT
ATOM      1  C   UNL     1       6.196   9.647  -0.194  0.00  0.00    +0.000 A 
ATOM      2  C   UNL     1       4.156   9.534   1.097  0.00  0.00    +0.000 A 
ATOM      3  C   UNL     1       5.463   9.108   0.865  0.00  0.00    +0.000 A 
ATOM      4  C   UNL     1       5.619  10.611  -1.021  0.00  0.00    +0.000 A 
ATOM      5  C   UNL     1       3.580  10.499   0.269  0.00  0.00    +0.000 A 
ATOM      6  C   UNL     1       4.311  11.037  -0.790  0.00  0.00    +0.000 A 
ATOM      7  H   UNL     1       5.861   8.357   1.539  0.00  0.00    +0.000 HD
ATOM      8  H   UNL     1       2.562  10.846   0.431  0.00  0.00    +0.000 HD
ATOM      9  H   UNL     1       3.851  11.787  -1.426  0.00  0.00    +0.000 HD
ENDROOT
BRANCH   2  11
ATOM     10  O   UNL     1       3.149   9.597   3.236  0.00  0.00    +0.000 OA
ATOM     11  C   UNL     1       3.392   8.974   2.200  0.00  0.00    +0.000 C 
ATOM     12  H   UNL     1       3.026   7.940   2.076  0.00  0.00    +0.000 HD
ENDBRANCH   2  11
BRANCH   4  13
ATOM     13  O   UNL     1       6.324  11.144  -2.058  0.00  0.00    +0.000 OA
ATOM     14  H   UNL     1       6.027  12.058  -2.206  0.00  0.00    +0.000 HD
ENDBRANCH   4  13
BRANCH   1  15
ATOM     15  O   UNL     1       7.472   9.222  -0.409  0.00  0.00    +0.000 OA
BRANCH  15  16
ATOM     16  C   UNL     1       8.494   9.807   0.396  0.00  0.00    +0.000 C 
ATOM     17  H   UNL     1       8.477   9.414   1.418  0.00  0.00    +0.000 HD
ATOM     18  H   UNL     1       8.456  10.901   0.366  0.00  0.00    +0.000 HD
ATOM     19  H   UNL     1       9.455   9.512  -0.041  0.00  0.00    +0.000 HD
ENDBRANCH  15  16
ENDBRANCH   1  15
TORSDOF 4
ENDMDL
MODEL 4
REMARK VINA RESULT:    -4.858      1.432      4.542
REMARK INTER + INTRA:          -5.790
REMARK INTER:                  -5.722
REMARK INTRA:                  -0.068
REMARK UNBOUND:                -0.080
REMARK  Name = 1183
REMARK  4 active torsions:
REMARK  status: ('A' for Active; 'I' for Inactive)
REMARK    1  A    between atoms: O_1  and  C_4
REMARK    2  A    between atoms: O_1  and  C_11
REMARK    3  A    between atoms: O_2  and  C_7
REMARK    4  A    between atoms: C_5  and  C_10
REMARK                            x       y       z     vdW  Elec       q    Type
REMARK                         _______ _______ _______ _____ _____    ______ ____
ROOT
ATOM      1  C   UNL     1       4.163  10.178   1.054  0.00  0.00    +0.000 A 
ATOM      2  C   UNL     1       6.152   9.049   0.271  0.00  0.00    +0.000 A 
ATOM      3  C   UNL     1       5.176  10.032   0.105  0.00  0.00    +0.000 A 
ATOM      4  C   UNL     1       4.127   9.340   2.168  0.00  0.00    +0.000 A 
ATOM      5  C   UNL     1       6.115   8.212   1.387  0.00  0.00    +0.000 A 
ATOM      6  C   UNL     1       5.103   8.357   2.335  0.00  0.00    +0.000 A 
ATOM      7  H   UNL     1       5.253  10.655  -0.780  0.00  0.00    +0.000 HD
ATOM      8  H   UNL     1       6.865   7.439   1.537  0.00  0.00    +0.000 HD
ATOM      9  H   UNL     1       5.086   7.698   3.199  0.00  0.00    +0.000 HD
ENDROOT
BRANCH   2  11
ATOM     10  O   UNL     1       7.426   7.839  -1.312  0.00  0.00    +0.000 OA
ATOM     11  C   UNL     1       7.207   8.897  -0.717  0.00  0.00    +0.000 C 
ATOM     12  H   UNL     1       7.826   9.787  -0.924  0.00  0.00    +0.000 HD
ENDBRANCH   2  11
BRANCH   4  13
ATOM     13  O   UNL     1       3.144   9.472   3.102  0.00  0.00    +0.000 OA
ATOM     14  H   UNL     1       2.328   9.769   2.663  0.00  0.00    +0.000 HD
ENDBRANCH   4  13
BRANCH   1  15
ATOM     15  O   UNL     1       3.216  11.141   0.880  0.00  0.00    +0.000 OA
BRANCH  15  16
ATOM     16  C   UNL     1       3.277  11.899  -0.327  0.00  0.00    +0.000 C 
ATOM     17  H   UNL     1       2.283  12.228  -0.648  0.00  0.00    +0.000 HD
ATOM     18  H   UNL     1       3.815  11.362  -1.115  0.00  0.00    +0.000 HD
ATOM     19  H   UNL     1       3.855  12.804  -0.109  0.00  0.00    +0.000 HD
ENDBRANCH  15  16
ENDBRANCH   1  15
TORSDOF 4
ENDMDL
MODEL 5
REMARK VINA RESULT:    -4.851      1.450      3.410
REMARK INTER + INTRA:          -5.781
REMARK INTER:                  -5.707
REMARK INTRA:                  -0.075
REMARK UNBOUND:                -0.080
REMARK  Name = 1183
REMARK  4 active torsions:
REMARK  status: ('A' for Active; 'I' for Inactive)
REMARK    1  A    between atoms: O_1  and  C_4
REMARK    2  A    between atoms: O_1  and  C_11
REMARK    3  A    between atoms: O_2  and  C_7
REMARK    4  A    between atoms: C_5  and  C_10
REMARK                            x       y       z     vdW  Elec       q    Type
REMARK                         _______ _______ _______ _____ _____    ______ ____
ROOT
ATOM      1  C   UNL     1       5.063   9.264   1.422  0.00  0.00    +0.000 A 
ATOM      2  C   UNL     1       5.802  10.797  -0.294  0.00  0.00    +0.000 A 
ATOM      3  C   UNL     1       6.026   9.670   0.497  0.00  0.00    +0.000 A 
ATOM      4  C   UNL     1       3.877   9.985   1.556  0.00  0.00    +0.000 A 
ATOM      5  C   UNL     1       4.614  11.518  -0.159  0.00  0.00    +0.000 A 
ATOM      6  C   UNL     1       3.652  11.112   0.766  0.00  0.00    +0.000 A 
ATOM      7  H   UNL     1       6.966   9.147   0.351  0.00  0.00    +0.000 HD
ATOM      8  H   UNL     1       4.418  12.399  -0.765  0.00  0.00    +0.000 HD
ATOM      9  H   UNL     1       2.733  11.682   0.860  0.00  0.00    +0.000 HD
ENDROOT
BRANCH   2  11
ATOM     10  O   UNL     1       7.943  10.748  -1.298  0.00  0.00    +0.000 OA
ATOM     11  C   UNL     1       6.803  11.221  -1.258  0.00  0.00    +0.000 C 
ATOM     12  H   UNL     1       6.503  12.004  -1.975  0.00  0.00    +0.000 HD
ENDBRANCH   2  11
BRANCH   4  13
ATOM     13  O   UNL     1       2.930   9.599   2.456  0.00  0.00    +0.000 OA
ATOM     14  H   UNL     1       2.861   8.628   2.447  0.00  0.00    +0.000 HD
ENDBRANCH   4  13
BRANCH   1  15
ATOM     15  O   UNL     1       5.295   8.161   2.188  0.00  0.00    +0.000 OA
BRANCH  15  16
ATOM     16  C   UNL     1       6.558   8.083   2.847  0.00  0.00    +0.000 C 
ATOM     17  H   UNL     1       6.578   8.691   3.756  0.00  0.00    +0.000 HD
ATOM     18  H   UNL     1       7.383   8.318   2.166  0.00  0.00    +0.000 HD
ATOM     19  H   UNL     1       6.692   7.041   3.159  0.00  0.00    +0.000 HD
ENDBRANCH  15  16
ENDBRANCH   1  15
TORSDOF 4
ENDMDL
MODEL 6
REMARK VINA RESULT:    -4.804     29.109     30.930
REMARK INTER + INTRA:          -5.726
REMARK INTER:                  -5.660
REMARK INTRA:                  -0.066
REMARK UNBOUND:                -0.080
REMARK  Name = 1183
REMARK  4 active torsions:
REMARK  status: ('A' for Active; 'I' for Inactive)
REMARK    1  A    between atoms: O_1  and  C_4
REMARK    2  A    between atoms: O_1  and  C_11
REMARK    3  A    between atoms: O_2  and  C_7
REMARK    4  A    between atoms: C_5  and  C_10
REMARK                            x       y       z     vdW  Elec       q    Type
REMARK                         _______ _______ _______ _____ _____    ______ ____
ROOT
ATOM      1  C   UNL     1     -10.326 -10.389  15.507  0.00  0.00    +0.000 A 
ATOM      2  C   UNL     1      -9.474 -12.042  17.051  0.00  0.00    +0.000 A 
ATOM      3  C   UNL     1     -10.462 -11.129  16.683  0.00  0.00    +0.000 A 
ATOM      4  C   UNL     1      -9.202 -10.563  14.701  0.00  0.00    +0.000 A 
ATOM      5  C   UNL     1      -8.349 -12.215  16.244  0.00  0.00    +0.000 A 
ATOM      6  C   UNL     1      -8.213 -11.476  15.069  0.00  0.00    +0.000 A 
ATOM      7  H   UNL     1     -11.315 -11.035  17.348  0.00  0.00    +0.000 HD
ATOM      8  H   UNL     1      -7.566 -12.921  16.511  0.00  0.00    +0.000 HD
ATOM      9  H   UNL     1      -7.332 -11.620  14.450  0.00  0.00    +0.000 HD
ENDROOT
BRANCH   2  11
ATOM     10  O   UNL     1      -9.919 -12.307  19.359  0.00  0.00    +0.000 OA
ATOM     11  C   UNL     1      -9.615 -12.813  18.275  0.00  0.00    +0.000 C 
ATOM     12  H   UNL     1      -9.436 -13.899  18.202  0.00  0.00    +0.000 HD
ENDBRANCH   2  11
BRANCH   4  13
ATOM     13  O   UNL     1      -9.057  -9.847  13.551  0.00  0.00    +0.000 OA
ATOM     14  H   UNL     1      -8.378 -10.269  12.998  0.00  0.00    +0.000 HD
ENDBRANCH   4  13
BRANCH   1  15
ATOM     15  O   UNL     1     -11.299  -9.501  15.159  0.00  0.00    +0.000 OA
BRANCH  15  16
ATOM     16  C   UNL     1     -12.532  -9.577  15.872  0.00  0.00    +0.000 C 
ATOM     17  H   UNL     1     -12.485  -9.031  16.820  0.00  0.00    +0.000 HD
ATOM     18  H   UNL     1     -12.860 -10.614  16.001  0.00  0.00    +0.000 HD
ATOM     19  H   UNL     1     -13.289  -9.079  15.257  0.00  0.00    +0.000 HD
ENDBRANCH  15  16
ENDBRANCH   1  15
TORSDOF 4
ENDMDL
MODEL 7
REMARK VINA RESULT:    -4.774     29.314     29.838
REMARK INTER + INTRA:          -5.691
REMARK INTER:                  -5.617
REMARK INTRA:                  -0.074
REMARK UNBOUND:                -0.080
REMARK  Name = 1183
REMARK  4 active torsions:
REMARK  status: ('A' for Active; 'I' for Inactive)
REMARK    1  A    between atoms: O_1  and  C_4
REMARK    2  A    between atoms: O_1  and  C_11
REMARK    3  A    between atoms: O_2  and  C_7
REMARK    4  A    between atoms: C_5  and  C_10
REMARK                            x       y       z     vdW  Elec       q    Type
REMARK                         _______ _______ _______ _____ _____    ______ ____
ROOT
ATOM      1  C   UNL     1     -20.164  -4.083   4.910  0.00  0.00    +0.000 A 
ATOM      2  C   UNL     1     -20.332  -3.709   2.528  0.00  0.00    +0.000 A 
ATOM      3  C   UNL     1     -20.763  -3.438   3.826  0.00  0.00    +0.000 A 
ATOM      4  C   UNL     1     -19.135  -4.999   4.694  0.00  0.00    +0.000 A 
ATOM      5  C   UNL     1     -19.302  -4.626   2.313  0.00  0.00    +0.000 A 
ATOM      6  C   UNL     1     -18.703  -5.271   3.395  0.00  0.00    +0.000 A 
ATOM      7  H   UNL     1     -21.567  -2.717   3.936  0.00  0.00    +0.000 HD
ATOM      8  H   UNL     1     -18.949  -4.853   1.309  0.00  0.00    +0.000 HD
ATOM      9  H   UNL     1     -17.903  -5.982   3.213  0.00  0.00    +0.000 HD
ENDROOT
BRANCH   2  11
ATOM     10  O   UNL     1     -20.396  -2.147   0.753  0.00  0.00    +0.000 OA
ATOM     11  C   UNL     1     -20.954  -3.038   1.399  0.00  0.00    +0.000 C 
ATOM     12  H   UNL     1     -21.974  -3.361   1.130  0.00  0.00    +0.000 HD
ENDBRANCH   2  11
BRANCH   4  13
ATOM     13  O   UNL     1     -18.543  -5.635   5.743  0.00  0.00    +0.000 OA
ATOM     14  H   UNL     1     -18.930  -6.523   5.834  0.00  0.00    +0.000 HD
ENDBRANCH   4  13
BRANCH   1  15
ATOM     15  O   UNL     1     -20.595  -3.809   6.173  0.00  0.00    +0.000 OA
BRANCH  15  16
ATOM     16  C   UNL     1     -20.656  -2.436   6.554  0.00  0.00    +0.000 C 
ATOM     17  H   UNL     1     -20.447  -1.773   5.708  0.00  0.00    +0.000 HD
ATOM     18  H   UNL     1     -20.017  -2.227   7.418  0.00  0.00    +0.000 HD
ATOM     19  H   UNL     1     -21.687  -2.235   6.866  0.00  0.00    +0.000 HD
ENDBRANCH  15  16
ENDBRANCH   1  15
TORSDOF 4
ENDMDL
MODEL 8
REMARK VINA RESULT:    -4.725      1.633      3.563
REMARK INTER + INTRA:          -5.633
REMARK INTER:                  -5.551
REMARK INTRA:                  -0.082
REMARK UNBOUND:                -0.080
REMARK  Name = 1183
REMARK  4 active torsions:
REMARK  status: ('A' for Active; 'I' for Inactive)
REMARK    1  A    between atoms: O_1  and  C_4
REMARK    2  A    between atoms: O_1  and  C_11
REMARK    3  A    between atoms: O_2  and  C_7
REMARK    4  A    between atoms: C_5  and  C_10
REMARK                            x       y       z     vdW  Elec       q    Type
REMARK                         _______ _______ _______ _____ _____    ______ ____
ROOT
ATOM      1  C   UNL     1       5.288  10.153  -0.119  0.00  0.00    +0.000 A 
ATOM      2  C   UNL     1       6.710   8.999   1.457  0.00  0.00    +0.000 A 
ATOM      3  C   UNL     1       5.441   9.414   1.055  0.00  0.00    +0.000 A 
ATOM      4  C   UNL     1       6.404  10.476  -0.890  0.00  0.00    +0.000 A 
ATOM      5  C   UNL     1       7.827   9.322   0.685  0.00  0.00    +0.000 A 
ATOM      6  C   UNL     1       7.674  10.061  -0.488  0.00  0.00    +0.000 A 
ATOM      7  H   UNL     1       4.608   9.135   1.693  0.00  0.00    +0.000 HD
ATOM      8  H   UNL     1       8.826   9.009   0.978  0.00  0.00    +0.000 HD
ATOM      9  H   UNL     1       8.551  10.306  -1.080  0.00  0.00    +0.000 HD
ENDROOT
BRANCH   2  11
ATOM     10  O   UNL     1       6.178   7.245   2.952  0.00  0.00    +0.000 OA
ATOM     11  C   UNL     1       6.871   8.229   2.679  0.00  0.00    +0.000 C 
ATOM     12  H   UNL     1       7.657   8.563   3.377  0.00  0.00    +0.000 HD
ENDBRANCH   2  11
BRANCH   4  13
ATOM     13  O   UNL     1       6.267  11.197  -2.038  0.00  0.00    +0.000 OA
ATOM     14  H   UNL     1       7.150  11.380  -2.404  0.00  0.00    +0.000 HD
ENDBRANCH   4  13
BRANCH   1  15
ATOM     15  O   UNL     1       4.042  10.553  -0.501  0.00  0.00    +0.000 OA
BRANCH  15  16
ATOM     16  C   UNL     1       3.450  11.621   0.237  0.00  0.00    +0.000 C 
ATOM     17  H   UNL     1       4.191  12.374   0.524  0.00  0.00    +0.000 HD
ATOM     18  H   UNL     1       2.876  11.251   1.093  0.00  0.00    +0.000 HD
ATOM     19  H   UNL     1       2.738  12.116  -0.432  0.00  0.00    +0.000 HD
ENDBRANCH  15  16
ENDBRANCH   1  15
TORSDOF 4
ENDMDL
MODEL 9
REMARK VINA RESULT:    -4.667     29.688     31.040
REMARK INTER + INTRA:          -5.565
REMARK INTER:                  -5.482
REMARK INTRA:                  -0.083
REMARK UNBOUND:                -0.080
REMARK  Name = 1183
REMARK  4 active torsions:
REMARK  status: ('A' for Active; 'I' for Inactive)
REMARK    1  A    between atoms: O_1  and  C_4
REMARK    2  A    between atoms: O_1  and  C_11
REMARK    3  A    between atoms: O_2  and  C_7
REMARK    4  A    between atoms: C_5  and  C_10
REMARK                            x       y       z     vdW  Elec       q    Type
REMARK                         _______ _______ _______ _____ _____    ______ ____
ROOT
ATOM      1  C   UNL     1     -21.899  -2.142   7.833  0.00  0.00    +0.000 A 
ATOM      2  C   UNL     1     -20.880  -2.500   5.671  0.00  0.00    +0.000 A 
ATOM      3  C   UNL     1     -21.600  -2.985   6.762  0.00  0.00    +0.000 A 
ATOM      4  C   UNL     1     -21.478  -0.812   7.811  0.00  0.00    +0.000 A 
ATOM      5  C   UNL     1     -20.460  -1.169   5.649  0.00  0.00    +0.000 A 
ATOM      6  C   UNL     1     -20.759  -0.325   6.719  0.00  0.00    +0.000 A 
ATOM      7  H   UNL     1     -21.902  -4.028   6.726  0.00  0.00    +0.000 HD
ATOM      8  H   UNL     1     -19.898  -0.768   4.809  0.00  0.00    +0.000 HD
ATOM      9  H   UNL     1     -20.426   0.708   6.690  0.00  0.00    +0.000 HD
ENDROOT
BRANCH   2  11
ATOM     10  O   UNL     1     -20.424  -4.597   4.678  0.00  0.00    +0.000 OA
ATOM     11  C   UNL     1     -20.569  -3.378   4.555  0.00  0.00    +0.000 C 
ATOM     12  H   UNL     1     -20.462  -2.904   3.564  0.00  0.00    +0.000 HD
ENDBRANCH   2  11
BRANCH   4  13
ATOM     13  O   UNL     1     -21.764   0.021   8.850  0.00  0.00    +0.000 OA
ATOM     14  H   UNL     1     -21.476  -0.396   9.680  0.00  0.00    +0.000 HD
ENDBRANCH   4  13
BRANCH   1  15
ATOM     15  O   UNL     1     -22.602  -2.629   8.893  0.00  0.00    +0.000 OA
BRANCH  15  16
ATOM     16  C   UNL     1     -23.984  -2.910   8.680  0.00  0.00    +0.000 C 
ATOM     17  H   UNL     1     -24.626  -2.276   9.300  0.00  0.00    +0.000 HD
ATOM     18  H   UNL     1     -24.203  -3.977   8.804  0.00  0.00    +0.000 HD
ATOM     19  H   UNL     1     -24.205  -2.661   7.637  0.00  0.00    +0.000 HD
ENDBRANCH  15  16
ENDBRANCH   1  15
TORSDOF 4
ENDMDL
MODEL 10
REMARK VINA RESULT:    -4.526     29.259     31.123
REMARK INTER + INTRA:          -5.400
REMARK INTER:                  -5.320
REMARK INTRA:                  -0.080
REMARK UNBOUND:                -0.080
REMARK  Name = 1183
REMARK  4 active torsions:
REMARK  status: ('A' for Active; 'I' for Inactive)
REMARK    1  A    between atoms: O_1  and  C_4
REMARK    2  A    between atoms: O_1  and  C_11
REMARK    3  A    between atoms: O_2  and  C_7
REMARK    4  A    between atoms: C_5  and  C_10
REMARK                            x       y       z     vdW  Elec       q    Type
REMARK                         _______ _______ _______ _____ _____    ______ ____
ROOT
ATOM      1  C   UNL     1      -8.964 -11.295  15.400  0.00  0.00    +0.000 A 
ATOM      2  C   UNL     1     -10.886 -12.409  16.352  0.00  0.00    +0.000 A 
ATOM      3  C   UNL     1      -9.560 -12.445  15.919  0.00  0.00    +0.000 A 
ATOM      4  C   UNL     1      -9.694 -10.110  15.313  0.00  0.00    +0.000 A 
ATOM      5  C   UNL     1     -11.615 -11.223  16.264  0.00  0.00    +0.000 A 
ATOM      6  C   UNL     1     -11.020 -10.074  15.745  0.00  0.00    +0.000 A 
ATOM      7  H   UNL     1      -9.040 -13.394  16.010  0.00  0.00    +0.000 HD
ATOM      8  H   UNL     1     -12.650 -11.172  16.595  0.00  0.00    +0.000 HD
ATOM      9  H   UNL     1     -11.599  -9.157  15.683  0.00  0.00    +0.000 HD
ENDROOT
BRANCH   2  11
ATOM     10  O   UNL     1     -12.490 -14.148  16.378  0.00  0.00    +0.000 OA
ATOM     11  C   UNL     1     -11.507 -13.607  16.893  0.00  0.00    +0.000 C 
ATOM     12  H   UNL     1     -11.059 -14.030  17.808  0.00  0.00    +0.000 HD
ENDBRANCH   2  11
BRANCH   4  13
ATOM     13  O   UNL     1      -9.123  -8.981  14.808  0.00  0.00    +0.000 OA
ATOM     14  H   UNL     1      -9.703  -8.222  14.994  0.00  0.00    +0.000 HD
ENDBRANCH   4  13
BRANCH   1  15
ATOM     15  O   UNL     1      -7.668 -11.344  14.981  0.00  0.00    +0.000 OA
BRANCH  15  16
ATOM     16  C   UNL     1      -6.681 -11.657  15.962  0.00  0.00    +0.000 C 
ATOM     17  H   UNL     1      -7.053 -11.488  16.978  0.00  0.00    +0.000 HD
ATOM     18  H   UNL     1      -5.738 -11.134  15.768  0.00  0.00    +0.000 HD
ATOM     19  H   UNL     1      -6.473 -12.729  15.876  0.00  0.00    +0.000 HD
ENDBRANCH  15  16
ENDBRANCH   1  15
TORSDOF 4
ENDMDL
