MODEL 1
REMARK VINA RESULT:    -4.456      0.000      0.000
REMARK INTER + INTRA:          -6.615
REMARK INTER:                  -6.306
REMARK INTRA:                  -0.309
REMARK UNBOUND:                -0.466
REMARK  Name = 75427
REMARK  8 active torsions:
REMARK  status: ('A' for Active; 'I' for Inactive)
REMARK    1  A    between atoms: C_2  and  C_3
REMARK    2  A    between atoms: C_2  and  C_5
REMARK    3  A    between atoms: C_2  and  C_6
REMARK    4  A    between atoms: C_3  and  C_4
REMARK    5  A    between atoms: C_4  and  C_7
REMARK    6  A    between atoms: C_5  and  C_9
REMARK    7  A    between atoms: C_8  and  C_10
REMARK    8  A    between atoms: C_8  and  C_11
REMARK                            x       y       z     vdW  Elec       q    Type
REMARK                         _______ _______ _______ _____ _____    ______ ____
ROOT
ATOM      1  C   UNL     1      11.045  -9.139  -1.627  0.00  0.00    +0.000 C 
ATOM      2  H   UNL     1      10.660  -8.279  -2.191  0.00  0.00    +0.000 HD
ATOM      3  H   UNL     1      11.939  -8.784  -1.095  0.00  0.00    +0.000 HD
ENDROOT
BRANCH   1   4
ATOM      4  C   UNL     1      11.440 -10.246  -2.610  0.00  0.00    +0.000 C 
ATOM      5  H   UNL     1      11.375 -11.239  -2.158  0.00  0.00    +0.000 HD
ATOM      6  H   UNL     1      10.733 -10.259  -3.449  0.00  0.00    +0.000 HD
BRANCH   4   7
ATOM      7  C   UNL     1      12.821 -10.018  -3.156  0.00  0.00    +0.000 C 
ATOM      8  C   UNL     1      13.158  -9.445  -4.327  0.00  0.00    +0.000 C 
ATOM      9  H   UNL     1      13.629 -10.373  -2.516  0.00  0.00    +0.000 HD
BRANCH   8  10
ATOM     10  C   UNL     1      14.564  -9.244  -4.817  0.00  0.00    +0.000 C 
ATOM     11  H   UNL     1      14.584  -8.930  -5.866  0.00  0.00    +0.000 HD
ATOM     12  H   UNL     1      15.070  -8.474  -4.226  0.00  0.00    +0.000 HD
ATOM     13  H   UNL     1      15.132 -10.178  -4.737  0.00  0.00    +0.000 HD
ENDBRANCH   8  10
BRANCH   8  14
ATOM     14  C   UNL     1      12.093  -8.955  -5.271  0.00  0.00    +0.000 C 
ATOM     15  H   UNL     1      11.280  -8.488  -4.704  0.00  0.00    +0.000 HD
ATOM     16  H   UNL     1      11.676  -9.797  -5.833  0.00  0.00    +0.000 HD
ATOM     17  H   UNL     1      12.432  -8.206  -5.990  0.00  0.00    +0.000 HD
ENDBRANCH   8  14
ENDBRANCH   4   7
ENDBRANCH   1   4
BRANCH   1  18
ATOM     18  C   UNL     1       9.983  -9.577  -0.596  0.00  0.00    +0.000 C 
ATOM     19  H   UNL     1      10.440  -9.592   0.402  0.00  0.00    +0.000 HD
BRANCH  18  20
ATOM     20  C   UNL     1       8.799  -8.604  -0.557  0.00  0.00    +0.000 C 
ATOM     21  H   UNL     1       8.650  -8.113  -1.523  0.00  0.00    +0.000 HD
ATOM     22  H   UNL     1       7.862  -9.120  -0.330  0.00  0.00    +0.000 HD
ATOM     23  H   UNL     1       8.952  -7.824   0.197  0.00  0.00    +0.000 HD
ENDBRANCH  18  20
BRANCH  18  24
ATOM     24  C   UNL     1       9.501 -10.999  -0.933  0.00  0.00    +0.000 C 
ATOM     25  H   UNL     1      10.057 -11.736  -0.342  0.00  0.00    +0.000 HD
ATOM     26  H   UNL     1       9.685 -11.224  -1.991  0.00  0.00    +0.000 HD
BRANCH  24  28
ATOM     27  O   UNL     1       7.453 -12.305  -0.797  0.00  0.00    +0.000 OA
ATOM     28  C   UNL     1       8.032 -11.234  -0.658  0.00  0.00    +0.000 C 
ATOM     29  H   UNL     1       7.480 -10.347  -0.301  0.00  0.00    +0.000 HD
ENDBRANCH  24  28
ENDBRANCH  18  24
ENDBRANCH   1  18
TORSDOF 8
ENDMDL
MODEL 2
REMARK VINA RESULT:    -4.406      2.909      6.373
REMARK INTER + INTRA:          -6.547
REMARK INTER:                  -6.007
REMARK INTRA:                  -0.540
REMARK UNBOUND:                -0.466
REMARK  Name = 75427
REMARK  8 active torsions:
REMARK  status: ('A' for Active; 'I' for Inactive)
REMARK    1  A    between atoms: C_2  and  C_3
REMARK    2  A    between atoms: C_2  and  C_5
REMARK    3  A    between atoms: C_2  and  C_6
REMARK    4  A    between atoms: C_3  and  C_4
REMARK    5  A    between atoms: C_4  and  C_7
REMARK    6  A    between atoms: C_5  and  C_9
REMARK    7  A    between atoms: C_8  and  C_10
REMARK    8  A    between atoms: C_8  and  C_11
REMARK                            x       y       z     vdW  Elec       q    Type
REMARK                         _______ _______ _______ _____ _____    ______ ____
ROOT
ATOM      1  C   UNL     1       8.878 -11.925   0.135  0.00  0.00    +0.000 C 
ATOM      2  H   UNL     1       9.906 -12.289   0.266  0.00  0.00    +0.000 HD
ATOM      3  H   UNL     1       8.583 -11.480   1.096  0.00  0.00    +0.000 HD
ENDROOT
BRANCH   1   4
ATOM      4  C   UNL     1       7.963 -13.113  -0.181  0.00  0.00    +0.000 C 
ATOM      5  H   UNL     1       8.468 -13.872  -0.784  0.00  0.00    +0.000 HD
ATOM      6  H   UNL     1       7.684 -13.618   0.752  0.00  0.00    +0.000 HD
BRANCH   4   7
ATOM      7  C   UNL     1       6.706 -12.660  -0.869  0.00  0.00    +0.000 C 
ATOM      8  C   UNL     1       5.538 -12.310  -0.300  0.00  0.00    +0.000 C 
ATOM      9  H   UNL     1       6.769 -12.626  -1.957  0.00  0.00    +0.000 HD
BRANCH   8  10
ATOM     10  C   UNL     1       4.313 -11.864  -1.048  0.00  0.00    +0.000 C 
ATOM     11  H   UNL     1       4.382 -12.104  -2.114  0.00  0.00    +0.000 HD
ATOM     12  H   UNL     1       3.421 -12.356  -0.650  0.00  0.00    +0.000 HD
ATOM     13  H   UNL     1       4.186 -10.779  -0.958  0.00  0.00    +0.000 HD
ENDBRANCH   8  10
BRANCH   8  14
ATOM     14  C   UNL     1       5.372 -12.358   1.195  0.00  0.00    +0.000 C 
ATOM     15  H   UNL     1       4.465 -12.918   1.450  0.00  0.00    +0.000 HD
ATOM     16  H   UNL     1       5.265 -11.343   1.592  0.00  0.00    +0.000 HD
ATOM     17  H   UNL     1       6.191 -12.843   1.729  0.00  0.00    +0.000 HD
ENDBRANCH   8  14
ENDBRANCH   4   7
ENDBRANCH   1   4
BRANCH   1  18
ATOM     18  C   UNL     1       8.868 -10.830  -0.952  0.00  0.00    +0.000 C 
ATOM     19  H   UNL     1       8.089 -11.067  -1.688  0.00  0.00    +0.000 HD
BRANCH  18  20
ATOM     20  C   UNL     1       8.555  -9.450  -0.361  0.00  0.00    +0.000 C 
ATOM     21  H   UNL     1       8.904  -9.367   0.672  0.00  0.00    +0.000 HD
ATOM     22  H   UNL     1       9.055  -8.653  -0.917  0.00  0.00    +0.000 HD
ATOM     23  H   UNL     1       7.478  -9.252  -0.370  0.00  0.00    +0.000 HD
ENDBRANCH  18  20
BRANCH  18  24
ATOM     24  C   UNL     1      10.229 -10.813  -1.670  0.00  0.00    +0.000 C 
ATOM     25  H   UNL     1      10.107 -11.117  -2.717  0.00  0.00    +0.000 HD
ATOM     26  H   UNL     1      10.918 -11.526  -1.202  0.00  0.00    +0.000 HD
BRANCH  24  28
ATOM     27  O   UNL     1      11.513  -8.984  -2.634  0.00  0.00    +0.000 OA
ATOM     28  C   UNL     1      10.902  -9.458  -1.683  0.00  0.00    +0.000 C 
ATOM     29  H   UNL     1      10.806  -8.884  -0.744  0.00  0.00    +0.000 HD
ENDBRANCH  24  28
ENDBRANCH  18  24
ENDBRANCH   1  18
TORSDOF 8
ENDMDL
MODEL 3
REMARK VINA RESULT:    -4.172      2.785      5.870
REMARK INTER + INTRA:          -6.224
REMARK INTER:                  -5.994
REMARK INTRA:                  -0.230
REMARK UNBOUND:                -0.466
REMARK  Name = 75427
REMARK  8 active torsions:
REMARK  status: ('A' for Active; 'I' for Inactive)
REMARK    1  A    between atoms: C_2  and  C_3
REMARK    2  A    between atoms: C_2  and  C_5
REMARK    3  A    between atoms: C_2  and  C_6
REMARK    4  A    between atoms: C_3  and  C_4
REMARK    5  A    between atoms: C_4  and  C_7
REMARK    6  A    between atoms: C_5  and  C_9
REMARK    7  A    between atoms: C_8  and  C_10
REMARK    8  A    between atoms: C_8  and  C_11
REMARK                            x       y       z     vdW  Elec       q    Type
REMARK                         _______ _______ _______ _____ _____    ______ ____
ROOT
ATOM      1  C   UNL     1      12.400 -10.284  -2.951  0.00  0.00    +0.000 C 
ATOM      2  H   UNL     1      11.915 -11.117  -3.476  0.00  0.00    +0.000 HD
ATOM      3  H   UNL     1      13.150 -10.733  -2.285  0.00  0.00    +0.000 HD
ENDROOT
BRANCH   1   4
ATOM      4  C   UNL     1      11.351  -9.544  -2.114  0.00  0.00    +0.000 C 
ATOM      5  H   UNL     1      11.795  -9.030  -1.258  0.00  0.00    +0.000 HD
ATOM      6  H   UNL     1      10.888  -8.756  -2.722  0.00  0.00    +0.000 HD
BRANCH   4   7
ATOM      7  C   UNL     1      10.271 -10.480  -1.648  0.00  0.00    +0.000 C 
ATOM      8  C   UNL     1       9.153 -10.170  -0.964  0.00  0.00    +0.000 C 
ATOM      9  H   UNL     1      10.437 -11.527  -1.898  0.00  0.00    +0.000 HD
BRANCH   8  10
ATOM     10  C   UNL     1       8.108 -11.157  -0.527  0.00  0.00    +0.000 C 
ATOM     11  H   UNL     1       8.529 -12.160  -0.398  0.00  0.00    +0.000 HD
ATOM     12  H   UNL     1       7.669 -10.852   0.428  0.00  0.00    +0.000 HD
ATOM     13  H   UNL     1       7.310 -11.224  -1.275  0.00  0.00    +0.000 HD
ENDBRANCH   8  10
BRANCH   8  14
ATOM     14  C   UNL     1       8.873  -8.747  -0.564  0.00  0.00    +0.000 C 
ATOM     15  H   UNL     1       8.096  -8.725   0.210  0.00  0.00    +0.000 HD
ATOM     16  H   UNL     1       8.507  -8.181  -1.427  0.00  0.00    +0.000 HD
ATOM     17  H   UNL     1       9.730  -8.213  -0.150  0.00  0.00    +0.000 HD
ENDBRANCH   8  14
ENDBRANCH   4   7
ENDBRANCH   1   4
BRANCH   1  18
ATOM     18  C   UNL     1      13.112  -9.386  -3.984  0.00  0.00    +0.000 C 
ATOM     19  H   UNL     1      13.422  -8.455  -3.493  0.00  0.00    +0.000 HD
BRANCH  18  20
ATOM     20  C   UNL     1      14.368 -10.062  -4.548  0.00  0.00    +0.000 C 
ATOM     21  H   UNL     1      14.884 -10.653  -3.785  0.00  0.00    +0.000 HD
ATOM     22  H   UNL     1      14.122 -10.756  -5.356  0.00  0.00    +0.000 HD
ATOM     23  H   UNL     1      15.076  -9.321  -4.935  0.00  0.00    +0.000 HD
ENDBRANCH  18  20
BRANCH  18  24
ATOM     24  C   UNL     1      12.133  -9.037  -5.118  0.00  0.00    +0.000 C 
ATOM     25  H   UNL     1      11.615  -8.097  -4.893  0.00  0.00    +0.000 HD
ATOM     26  H   UNL     1      11.367  -9.816  -5.215  0.00  0.00    +0.000 HD
BRANCH  24  28
ATOM     27  O   UNL     1      12.218  -8.965  -7.548  0.00  0.00    +0.000 OA
ATOM     28  C   UNL     1      12.790  -8.864  -6.469  0.00  0.00    +0.000 C 
ATOM     29  H   UNL     1      13.868  -8.624  -6.433  0.00  0.00    +0.000 HD
ENDBRANCH  24  28
ENDBRANCH  18  24
ENDBRANCH   1  18
TORSDOF 8
ENDMDL
MODEL 4
REMARK VINA RESULT:    -4.081     20.033     21.249
REMARK INTER + INTRA:          -6.097
REMARK INTER:                  -5.659
REMARK INTRA:                  -0.438
REMARK UNBOUND:                -0.466
REMARK  Name = 75427
REMARK  8 active torsions:
REMARK  status: ('A' for Active; 'I' for Inactive)
REMARK    1  A    between atoms: C_2  and  C_3
REMARK    2  A    between atoms: C_2  and  C_5
REMARK    3  A    between atoms: C_2  and  C_6
REMARK    4  A    between atoms: C_3  and  C_4
REMARK    5  A    between atoms: C_4  and  C_7
REMARK    6  A    between atoms: C_5  and  C_9
REMARK    7  A    between atoms: C_8  and  C_10
REMARK    8  A    between atoms: C_8  and  C_11
REMARK                            x       y       z     vdW  Elec       q    Type
REMARK                         _______ _______ _______ _____ _____    ______ ____
ROOT
ATOM      1  C   UNL     1      17.966   9.604   0.641  0.00  0.00    +0.000 C 
ATOM      2  H   UNL     1      17.987  10.620   1.056  0.00  0.00    +0.000 HD
ATOM      3  H   UNL     1      18.018   9.713  -0.451  0.00  0.00    +0.000 HD
ENDROOT
BRANCH   1   4
ATOM      4  C   UNL     1      16.643   8.933   1.026  0.00  0.00    +0.000 C 
ATOM      5  H   UNL     1      16.298   8.235   0.260  0.00  0.00    +0.000 HD
ATOM      6  H   UNL     1      16.789   8.328   1.930  0.00  0.00    +0.000 HD
BRANCH   4   7
ATOM      7  C   UNL     1      15.579   9.957   1.308  0.00  0.00    +0.000 C 
ATOM      8  C   UNL     1      15.161  10.399   2.509  0.00  0.00    +0.000 C 
ATOM      9  H   UNL     1      15.098  10.370   0.422  0.00  0.00    +0.000 HD
BRANCH   8  10
ATOM     10  C   UNL     1      14.089  11.429   2.724  0.00  0.00    +0.000 C 
ATOM     11  H   UNL     1      13.184  10.984   3.153  0.00  0.00    +0.000 HD
ATOM     12  H   UNL     1      14.438  12.208   3.409  0.00  0.00    +0.000 HD
ATOM     13  H   UNL     1      13.812  11.895   1.772  0.00  0.00    +0.000 HD
ENDBRANCH   8  10
BRANCH   8  14
ATOM     14  C   UNL     1      15.764   9.853   3.776  0.00  0.00    +0.000 C 
ATOM     15  H   UNL     1      15.334   8.869   3.997  0.00  0.00    +0.000 HD
ATOM     16  H   UNL     1      15.536  10.518   4.615  0.00  0.00    +0.000 HD
ATOM     17  H   UNL     1      16.846   9.713   3.742  0.00  0.00    +0.000 HD
ENDBRANCH   8  14
ENDBRANCH   4   7
ENDBRANCH   1   4
BRANCH   1  18
ATOM     18  C   UNL     1      19.213   8.838   1.133  0.00  0.00    +0.000 C 
ATOM     19  H   UNL     1      19.929   9.555   1.554  0.00  0.00    +0.000 HD
BRANCH  18  20
ATOM     20  C   UNL     1      18.858   7.827   2.230  0.00  0.00    +0.000 C 
ATOM     21  H   UNL     1      18.001   8.161   2.822  0.00  0.00    +0.000 HD
ATOM     22  H   UNL     1      18.579   6.858   1.808  0.00  0.00    +0.000 HD
ATOM     23  H   UNL     1      19.700   7.675   2.914  0.00  0.00    +0.000 HD
ENDBRANCH  18  20
BRANCH  18  24
ATOM     24  C   UNL     1      19.878   8.128  -0.059  0.00  0.00    +0.000 C 
ATOM     25  H   UNL     1      20.562   8.813  -0.573  0.00  0.00    +0.000 HD
ATOM     26  H   UNL     1      19.121   7.816  -0.789  0.00  0.00    +0.000 HD
BRANCH  24  28
ATOM     27  O   UNL     1      21.882   6.906   0.582  0.00  0.00    +0.000 OA
ATOM     28  C   UNL     1      20.684   6.905   0.322  0.00  0.00    +0.000 C 
ATOM     29  H   UNL     1      20.108   5.964   0.362  0.00  0.00    +0.000 HD
ENDBRANCH  24  28
ENDBRANCH  18  24
ENDBRANCH   1  18
TORSDOF 8
ENDMDL
MODEL 5
REMARK VINA RESULT:    -4.076      2.888      5.517
REMARK INTER + INTRA:          -6.091
REMARK INTER:                  -5.602
REMARK INTRA:                  -0.488
REMARK UNBOUND:                -0.466
REMARK  Name = 75427
REMARK  8 active torsions:
REMARK  status: ('A' for Active; 'I' for Inactive)
REMARK    1  A    between atoms: C_2  and  C_3
REMARK    2  A    between atoms: C_2  and  C_5
REMARK    3  A    between atoms: C_2  and  C_6
REMARK    4  A    between atoms: C_3  and  C_4
REMARK    5  A    between atoms: C_4  and  C_7
REMARK    6  A    between atoms: C_5  and  C_9
REMARK    7  A    between atoms: C_8  and  C_10
REMARK    8  A    between atoms: C_8  and  C_11
REMARK                            x       y       z     vdW  Elec       q    Type
REMARK                         _______ _______ _______ _____ _____    ______ ____
ROOT
ATOM      1  C   UNL     1      12.219 -10.444  -4.749  0.00  0.00    +0.000 C 
ATOM      2  H   UNL     1      11.216 -10.776  -5.046  0.00  0.00    +0.000 HD
ATOM      3  H   UNL     1      12.930 -11.116  -5.250  0.00  0.00    +0.000 HD
ENDROOT
BRANCH   1   4
ATOM      4  C   UNL     1      12.364 -10.587  -3.230  0.00  0.00    +0.000 C 
ATOM      5  H   UNL     1      11.884 -11.494  -2.855  0.00  0.00    +0.000 HD
ATOM      6  H   UNL     1      13.426 -10.688  -2.972  0.00  0.00    +0.000 HD
BRANCH   4   7
ATOM      7  C   UNL     1      11.816  -9.382  -2.518  0.00  0.00    +0.000 C 
ATOM      8  C   UNL     1      10.779  -9.334  -1.662  0.00  0.00    +0.000 C 
ATOM      9  H   UNL     1      12.330  -8.447  -2.743  0.00  0.00    +0.000 HD
BRANCH   8  10
ATOM     10  C   UNL     1      10.279  -8.092  -0.980  0.00  0.00    +0.000 C 
ATOM     11  H   UNL     1      10.553  -7.189  -1.537  0.00  0.00    +0.000 HD
ATOM     12  H   UNL     1       9.188  -8.115  -0.893  0.00  0.00    +0.000 HD
ATOM     13  H   UNL     1      10.710  -8.008   0.024  0.00  0.00    +0.000 HD
ENDBRANCH   8  10
BRANCH   8  14
ATOM     14  C   UNL     1      10.008 -10.582  -1.326  0.00  0.00    +0.000 C 
ATOM     15  H   UNL     1       8.945 -10.433  -1.549  0.00  0.00    +0.000 HD
ATOM     16  H   UNL     1      10.102 -10.803  -0.257  0.00  0.00    +0.000 HD
ATOM     17  H   UNL     1      10.314 -11.470  -1.881  0.00  0.00    +0.000 HD
ENDBRANCH   8  14
ENDBRANCH   4   7
ENDBRANCH   1   4
BRANCH   1  18
ATOM     18  C   UNL     1      12.441  -9.003  -5.258  0.00  0.00    +0.000 C 
ATOM     19  H   UNL     1      12.270  -8.303  -4.431  0.00  0.00    +0.000 HD
BRANCH  18  20
ATOM     20  C   UNL     1      13.875  -8.797  -5.761  0.00  0.00    +0.000 C 
ATOM     21  H   UNL     1      14.258  -7.809  -5.487  0.00  0.00    +0.000 HD
ATOM     22  H   UNL     1      14.563  -9.523  -5.320  0.00  0.00    +0.000 HD
ATOM     23  H   UNL     1      13.929  -8.889  -6.850  0.00  0.00    +0.000 HD
ENDBRANCH  18  20
BRANCH  18  24
ATOM     24  C   UNL     1      11.429  -8.696  -6.375  0.00  0.00    +0.000 C 
ATOM     25  H   UNL     1      11.856  -7.977  -7.083  0.00  0.00    +0.000 HD
ATOM     26  H   UNL     1      10.523  -8.242  -5.956  0.00  0.00    +0.000 HD
BRANCH  24  28
ATOM     27  O   UNL     1      11.478 -10.227  -8.265  0.00  0.00    +0.000 OA
ATOM     28  C   UNL     1      11.010  -9.908  -7.179  0.00  0.00    +0.000 C 
ATOM     29  H   UNL     1      10.224 -10.526  -6.710  0.00  0.00    +0.000 HD
ENDBRANCH  24  28
ENDBRANCH  18  24
ENDBRANCH   1  18
TORSDOF 8
ENDMDL
MODEL 6
REMARK VINA RESULT:    -4.067      2.246      2.883
REMARK INTER + INTRA:          -6.079
REMARK INTER:                  -5.702
REMARK INTRA:                  -0.376
REMARK UNBOUND:                -0.466
REMARK  Name = 75427
REMARK  8 active torsions:
REMARK  status: ('A' for Active; 'I' for Inactive)
REMARK    1  A    between atoms: C_2  and  C_3
REMARK    2  A    between atoms: C_2  and  C_5
REMARK    3  A    between atoms: C_2  and  C_6
REMARK    4  A    between atoms: C_3  and  C_4
REMARK    5  A    between atoms: C_4  and  C_7
REMARK    6  A    between atoms: C_5  and  C_9
REMARK    7  A    between atoms: C_8  and  C_10
REMARK    8  A    between atoms: C_8  and  C_11
REMARK                            x       y       z     vdW  Elec       q    Type
REMARK                         _______ _______ _______ _____ _____    ______ ____
ROOT
ATOM      1  C   UNL     1      11.756  -9.329  -2.808  0.00  0.00    +0.000 C 
ATOM      2  H   UNL     1      11.153  -8.880  -3.609  0.00  0.00    +0.000 HD
ATOM      3  H   UNL     1      12.681  -8.738  -2.751  0.00  0.00    +0.000 HD
ENDROOT
BRANCH   1   4
ATOM      4  C   UNL     1      12.095 -10.774  -3.187  0.00  0.00    +0.000 C 
ATOM      5  H   UNL     1      13.167 -10.975  -3.127  0.00  0.00    +0.000 HD
ATOM      6  H   UNL     1      11.627 -11.459  -2.468  0.00  0.00    +0.000 HD
BRANCH   4   7
ATOM      7  C   UNL     1      11.584 -11.108  -4.561  0.00  0.00    +0.000 C 
ATOM      8  C   UNL     1      10.700 -12.065  -4.899  0.00  0.00    +0.000 C 
ATOM      9  H   UNL     1      11.997 -10.495  -5.362  0.00  0.00    +0.000 HD
BRANCH   8  10
ATOM     10  C   UNL     1      10.228 -12.349  -6.297  0.00  0.00    +0.000 C 
ATOM     11  H   UNL     1       9.576 -13.229  -6.331  0.00  0.00    +0.000 HD
ATOM     12  H   UNL     1       9.664 -11.498  -6.691  0.00  0.00    +0.000 HD
ATOM     13  H   UNL     1      11.082 -12.540  -6.956  0.00  0.00    +0.000 HD
ENDBRANCH   8  10
BRANCH   8  14
ATOM     14  C   UNL     1      10.109 -12.965  -3.848  0.00  0.00    +0.000 C 
ATOM     15  H   UNL     1       9.045 -13.128  -4.054  0.00  0.00    +0.000 HD
ATOM     16  H   UNL     1      10.196 -12.496  -2.862  0.00  0.00    +0.000 HD
ATOM     17  H   UNL     1      10.563 -13.956  -3.789  0.00  0.00    +0.000 HD
ENDBRANCH   8  14
ENDBRANCH   4   7
ENDBRANCH   1   4
BRANCH   1  18
ATOM     18  C   UNL     1      10.992  -9.202  -1.474  0.00  0.00    +0.000 C 
ATOM     19  H   UNL     1      11.695  -9.350  -0.645  0.00  0.00    +0.000 HD
BRANCH  18  20
ATOM     20  C   UNL     1      10.361  -7.813  -1.314  0.00  0.00    +0.000 C 
ATOM     21  H   UNL     1      10.673  -7.335  -0.381  0.00  0.00    +0.000 HD
ATOM     22  H   UNL     1      10.665  -7.139  -2.119  0.00  0.00    +0.000 HD
ATOM     23  H   UNL     1       9.267  -7.874  -1.311  0.00  0.00    +0.000 HD
ENDBRANCH  18  20
BRANCH  18  24
ATOM     24  C   UNL     1       9.913 -10.296  -1.399  0.00  0.00    +0.000 C 
ATOM     25  H   UNL     1      10.320 -11.253  -1.746  0.00  0.00    +0.000 HD
ATOM     26  H   UNL     1       9.068 -10.046  -2.051  0.00  0.00    +0.000 HD
BRANCH  24  28
ATOM     27  O   UNL     1       8.480  -9.872   0.522  0.00  0.00    +0.000 OA
ATOM     28  C   UNL     1       9.368 -10.531  -0.007  0.00  0.00    +0.000 C 
ATOM     29  H   UNL     1       9.831 -11.374   0.536  0.00  0.00    +0.000 HD
ENDBRANCH  24  28
ENDBRANCH  18  24
ENDBRANCH   1  18
TORSDOF 8
ENDMDL
MODEL 7
REMARK VINA RESULT:    -4.050     16.449     18.103
REMARK INTER + INTRA:          -6.055
REMARK INTER:                  -5.433
REMARK INTRA:                  -0.623
REMARK UNBOUND:                -0.466
REMARK  Name = 75427
REMARK  8 active torsions:
REMARK  status: ('A' for Active; 'I' for Inactive)
REMARK    1  A    between atoms: C_2  and  C_3
REMARK    2  A    between atoms: C_2  and  C_5
REMARK    3  A    between atoms: C_2  and  C_6
REMARK    4  A    between atoms: C_3  and  C_4
REMARK    5  A    between atoms: C_4  and  C_7
REMARK    6  A    between atoms: C_5  and  C_9
REMARK    7  A    between atoms: C_8  and  C_10
REMARK    8  A    between atoms: C_8  and  C_11
REMARK                            x       y       z     vdW  Elec       q    Type
REMARK                         _______ _______ _______ _____ _____    ______ ____
ROOT
ATOM      1  C   UNL     1      -3.146  -8.171  -9.705  0.00  0.00    +0.000 C 
ATOM      2  H   UNL     1      -3.841  -8.649  -9.002  0.00  0.00    +0.000 HD
ATOM      3  H   UNL     1      -2.146  -8.258  -9.259  0.00  0.00    +0.000 HD
ENDROOT
BRANCH   1   4
ATOM      4  C   UNL     1      -3.517  -6.690  -9.844  0.00  0.00    +0.000 C 
ATOM      5  H   UNL     1      -2.659  -6.034  -9.682  0.00  0.00    +0.000 HD
ATOM      6  H   UNL     1      -3.849  -6.492 -10.871  0.00  0.00    +0.000 HD
BRANCH   4   7
ATOM      7  C   UNL     1      -4.633  -6.321  -8.907  0.00  0.00    +0.000 C 
ATOM      8  C   UNL     1      -5.950  -6.267  -9.177  0.00  0.00    +0.000 C 
ATOM      9  H   UNL     1      -4.313  -6.064  -7.897  0.00  0.00    +0.000 HD
BRANCH   8  10
ATOM     10  C   UNL     1      -7.019  -5.889  -8.192  0.00  0.00    +0.000 C 
ATOM     11  H   UNL     1      -7.139  -6.652  -7.415  0.00  0.00    +0.000 HD
ATOM     12  H   UNL     1      -6.770  -4.945  -7.699  0.00  0.00    +0.000 HD
ATOM     13  H   UNL     1      -7.983  -5.777  -8.699  0.00  0.00    +0.000 HD
ENDBRANCH   8  10
BRANCH   8  14
ATOM     14  C   UNL     1      -6.460  -6.585 -10.558  0.00  0.00    +0.000 C 
ATOM     15  H   UNL     1      -6.503  -7.671 -10.696  0.00  0.00    +0.000 HD
ATOM     16  H   UNL     1      -5.780  -6.174 -11.311  0.00  0.00    +0.000 HD
ATOM     17  H   UNL     1      -7.463  -6.210 -10.770  0.00  0.00    +0.000 HD
ENDBRANCH   8  14
ENDBRANCH   4   7
ENDBRANCH   1   4
BRANCH   1  18
ATOM     18  C   UNL     1      -3.174  -8.943 -11.041  0.00  0.00    +0.000 C 
ATOM     19  H   UNL     1      -2.208  -9.444 -11.183  0.00  0.00    +0.000 HD
BRANCH  18  20
ATOM     20  C   UNL     1      -4.268 -10.018 -11.048  0.00  0.00    +0.000 C 
ATOM     21  H   UNL     1      -3.997 -10.862 -11.689  0.00  0.00    +0.000 HD
ATOM     22  H   UNL     1      -4.431 -10.433 -10.050  0.00  0.00    +0.000 HD
ATOM     23  H   UNL     1      -5.218  -9.612 -11.411  0.00  0.00    +0.000 HD
ENDBRANCH  18  20
BRANCH  18  24
ATOM     24  C   UNL     1      -3.384  -7.952 -12.198  0.00  0.00    +0.000 C 
ATOM     25  H   UNL     1      -3.292  -6.922 -11.835  0.00  0.00    +0.000 HD
ATOM     26  H   UNL     1      -4.392  -8.061 -12.617  0.00  0.00    +0.000 HD
BRANCH  24  28
ATOM     27  O   UNL     1      -1.858  -7.182 -13.930  0.00  0.00    +0.000 OA
ATOM     28  C   UNL     1      -2.394  -8.108 -13.331  0.00  0.00    +0.000 C 
ATOM     29  H   UNL     1      -2.161  -9.152 -13.603  0.00  0.00    +0.000 HD
ENDBRANCH  24  28
ENDBRANCH  18  24
ENDBRANCH   1  18
TORSDOF 8
ENDMDL
MODEL 8
REMARK VINA RESULT:    -4.003     22.150     23.107
REMARK INTER + INTRA:          -5.990
REMARK INTER:                  -5.554
REMARK INTRA:                  -0.436
REMARK UNBOUND:                -0.466
REMARK  Name = 75427
REMARK  8 active torsions:
REMARK  status: ('A' for Active; 'I' for Inactive)
REMARK    1  A    between atoms: C_2  and  C_3
REMARK    2  A    between atoms: C_2  and  C_5
REMARK    3  A    between atoms: C_2  and  C_6
REMARK    4  A    between atoms: C_3  and  C_4
REMARK    5  A    between atoms: C_4  and  C_7
REMARK    6  A    between atoms: C_5  and  C_9
REMARK    7  A    between atoms: C_8  and  C_10
REMARK    8  A    between atoms: C_8  and  C_11
REMARK                            x       y       z     vdW  Elec       q    Type
REMARK                         _______ _______ _______ _____ _____    ______ ____
ROOT
ATOM      1  C   UNL     1       7.850  12.864  -2.263  0.00  0.00    +0.000 C 
ATOM      2  H   UNL     1       6.861  12.394  -2.178  0.00  0.00    +0.000 HD
ATOM      3  H   UNL     1       7.728  13.723  -2.937  0.00  0.00    +0.000 HD
ENDROOT
BRANCH   1   4
ATOM      4  C   UNL     1       8.827  11.861  -2.884  0.00  0.00    +0.000 C 
ATOM      5  H   UNL     1       9.814  11.904  -2.416  0.00  0.00    +0.000 HD
ATOM      6  H   UNL     1       8.464  10.840  -2.709  0.00  0.00    +0.000 HD
BRANCH   4   7
ATOM      7  C   UNL     1       8.950  12.072  -4.367  0.00  0.00    +0.000 C 
ATOM      8  C   UNL     1       9.909  12.751  -5.024  0.00  0.00    +0.000 C 
ATOM      9  H   UNL     1       8.154  11.621  -4.959  0.00  0.00    +0.000 HD
BRANCH   8  10
ATOM     10  C   UNL     1       9.976  12.926  -6.515  0.00  0.00    +0.000 C 
ATOM     11  H   UNL     1      10.093  11.965  -7.029  0.00  0.00    +0.000 HD
ATOM     12  H   UNL     1       9.059  13.395  -6.887  0.00  0.00    +0.000 HD
ATOM     13  H   UNL     1      10.829  13.557  -6.787  0.00  0.00    +0.000 HD
ENDBRANCH   8  10
BRANCH   8  14
ATOM     14  C   UNL     1      11.025  13.421  -4.268  0.00  0.00    +0.000 C 
ATOM     15  H   UNL     1      10.947  13.180  -3.202  0.00  0.00    +0.000 HD
ATOM     16  H   UNL     1      10.949  14.508  -4.377  0.00  0.00    +0.000 HD
ATOM     17  H   UNL     1      12.028  13.121  -4.576  0.00  0.00    +0.000 HD
ENDBRANCH   8  14
ENDBRANCH   4   7
ENDBRANCH   1   4
BRANCH   1  18
ATOM     18  C   UNL     1       8.285  13.370  -0.872  0.00  0.00    +0.000 C 
ATOM     19  H   UNL     1       9.057  12.699  -0.473  0.00  0.00    +0.000 HD
BRANCH  18  20
ATOM     20  C   UNL     1       8.881  14.781  -0.946  0.00  0.00    +0.000 C 
ATOM     21  H   UNL     1       9.566  14.884  -1.793  0.00  0.00    +0.000 HD
ATOM     22  H   UNL     1       8.105  15.538  -1.088  0.00  0.00    +0.000 HD
ATOM     23  H   UNL     1       9.436  15.025  -0.033  0.00  0.00    +0.000 HD
ENDBRANCH  18  20
BRANCH  18  24
ATOM     24  C   UNL     1       7.077  13.345   0.081  0.00  0.00    +0.000 C 
ATOM     25  H   UNL     1       6.863  14.357   0.445  0.00  0.00    +0.000 HD
ATOM     26  H   UNL     1       7.295  12.723   0.958  0.00  0.00    +0.000 HD
BRANCH  24  28
ATOM     27  O   UNL     1       5.061  11.990  -0.050  0.00  0.00    +0.000 OA
ATOM     28  C   UNL     1       5.804  12.826  -0.550  0.00  0.00    +0.000 C 
ATOM     29  H   UNL     1       5.562  13.266  -1.534  0.00  0.00    +0.000 HD
ENDBRANCH  24  28
ENDBRANCH  18  24
ENDBRANCH   1  18
TORSDOF 8
ENDMDL
MODEL 9
REMARK VINA RESULT:    -3.994     16.112     18.084
REMARK INTER + INTRA:          -5.978
REMARK INTER:                  -5.512
REMARK INTRA:                  -0.466
REMARK UNBOUND:                -0.466
REMARK  Name = 75427
REMARK  8 active torsions:
REMARK  status: ('A' for Active; 'I' for Inactive)
REMARK    1  A    between atoms: C_2  and  C_3
REMARK    2  A    between atoms: C_2  and  C_5
REMARK    3  A    between atoms: C_2  and  C_6
REMARK    4  A    between atoms: C_3  and  C_4
REMARK    5  A    between atoms: C_4  and  C_7
REMARK    6  A    between atoms: C_5  and  C_9
REMARK    7  A    between atoms: C_8  and  C_10
REMARK    8  A    between atoms: C_8  and  C_11
REMARK                            x       y       z     vdW  Elec       q    Type
REMARK                         _______ _______ _______ _____ _____    ______ ____
ROOT
ATOM      1  C   UNL     1      -5.051  -7.768 -10.322  0.00  0.00    +0.000 C 
ATOM      2  H   UNL     1      -4.544  -7.407 -11.226  0.00  0.00    +0.000 HD
ATOM      3  H   UNL     1      -6.110  -7.891 -10.590  0.00  0.00    +0.000 HD
ENDROOT
BRANCH   1   4
ATOM      4  C   UNL     1      -4.922  -6.711  -9.220  0.00  0.00    +0.000 C 
ATOM      5  H   UNL     1      -4.593  -7.143  -8.272  0.00  0.00    +0.000 HD
ATOM      6  H   UNL     1      -4.145  -5.987  -9.498  0.00  0.00    +0.000 HD
BRANCH   4   7
ATOM      7  C   UNL     1      -6.214  -5.968  -9.028  0.00  0.00    +0.000 C 
ATOM      8  C   UNL     1      -7.071  -6.062  -7.993  0.00  0.00    +0.000 C 
ATOM      9  H   UNL     1      -6.472  -5.284  -9.837  0.00  0.00    +0.000 HD
BRANCH   8  10
ATOM     10  C   UNL     1      -8.352  -5.288  -7.860  0.00  0.00    +0.000 C 
ATOM     11  H   UNL     1      -8.293  -4.321  -8.371  0.00  0.00    +0.000 HD
ATOM     12  H   UNL     1      -9.185  -5.848  -8.296  0.00  0.00    +0.000 HD
ATOM     13  H   UNL     1      -8.572  -5.096  -6.805  0.00  0.00    +0.000 HD
ENDBRANCH   8  10
BRANCH   8  14
ATOM     14  C   UNL     1      -6.791  -7.005  -6.854  0.00  0.00    +0.000 C 
ATOM     15  H   UNL     1      -6.338  -7.927  -7.238  0.00  0.00    +0.000 HD
ATOM     16  H   UNL     1      -7.727  -7.271  -6.351  0.00  0.00    +0.000 HD
ATOM     17  H   UNL     1      -6.103  -6.618  -6.101  0.00  0.00    +0.000 HD
ENDBRANCH   8  14
ENDBRANCH   4   7
ENDBRANCH   1   4
BRANCH   1  18
ATOM     18  C   UNL     1      -4.466  -9.142  -9.932  0.00  0.00    +0.000 C 
ATOM     19  H   UNL     1      -5.283  -9.797  -9.604  0.00  0.00    +0.000 HD
BRANCH  18  20
ATOM     20  C   UNL     1      -3.769  -9.816 -11.121  0.00  0.00    +0.000 C 
ATOM     21  H   UNL     1      -4.494 -10.222 -11.833  0.00  0.00    +0.000 HD
ATOM     22  H   UNL     1      -3.155  -9.106 -11.681  0.00  0.00    +0.000 HD
ATOM     23  H   UNL     1      -3.127 -10.638 -10.788  0.00  0.00    +0.000 HD
ENDBRANCH  18  20
BRANCH  18  24
ATOM     24  C   UNL     1      -3.483  -8.964  -8.762  0.00  0.00    +0.000 C 
ATOM     25  H   UNL     1      -3.528  -7.935  -8.384  0.00  0.00    +0.000 HD
ATOM     26  H   UNL     1      -2.454  -9.143  -9.096  0.00  0.00    +0.000 HD
BRANCH  24  28
ATOM     27  O   UNL     1      -4.581  -9.662  -6.705  0.00  0.00    +0.000 OA
ATOM     28  C   UNL     1      -3.754  -9.875  -7.585  0.00  0.00    +0.000 C 
ATOM     29  H   UNL     1      -3.142 -10.794  -7.560  0.00  0.00    +0.000 HD
ENDBRANCH  24  28
ENDBRANCH  18  24
ENDBRANCH   1  18
TORSDOF 8
ENDMDL
MODEL 10
REMARK VINA RESULT:    -3.924     16.657     17.695
REMARK INTER + INTRA:          -5.881
REMARK INTER:                  -5.533
REMARK INTRA:                  -0.348
REMARK UNBOUND:                -0.466
REMARK  Name = 75427
REMARK  8 active torsions:
REMARK  status: ('A' for Active; 'I' for Inactive)
REMARK    1  A    between atoms: C_2  and  C_3
REMARK    2  A    between atoms: C_2  and  C_5
REMARK    3  A    between atoms: C_2  and  C_6
REMARK    4  A    between atoms: C_3  and  C_4
REMARK    5  A    between atoms: C_4  and  C_7
REMARK    6  A    between atoms: C_5  and  C_9
REMARK    7  A    between atoms: C_8  and  C_10
REMARK    8  A    between atoms: C_8  and  C_11
REMARK                            x       y       z     vdW  Elec       q    Type
REMARK                         _______ _______ _______ _____ _____    ______ ____
ROOT
ATOM      1  C   UNL     1      -5.857  -6.291  -9.319  0.00  0.00    +0.000 C 
ATOM      2  H   UNL     1      -6.302  -7.138  -9.857  0.00  0.00    +0.000 HD
ATOM      3  H   UNL     1      -6.134  -5.388  -9.880  0.00  0.00    +0.000 HD
ENDROOT
BRANCH   1   4
ATOM      4  C   UNL     1      -4.332  -6.446  -9.317  0.00  0.00    +0.000 C 
ATOM      5  H   UNL     1      -3.824  -5.509  -9.077  0.00  0.00    +0.000 HD
ATOM      6  H   UNL     1      -4.037  -7.149  -8.528  0.00  0.00    +0.000 HD
BRANCH   4   7
ATOM      7  C   UNL     1      -3.840  -6.976 -10.634  0.00  0.00    +0.000 C 
ATOM      8  C   UNL     1      -3.513  -8.246 -10.939  0.00  0.00    +0.000 C 
ATOM      9  H   UNL     1      -3.736  -6.226 -11.418  0.00  0.00    +0.000 HD
BRANCH   8  10
ATOM     10  C   UNL     1      -3.026  -8.714 -12.281  0.00  0.00    +0.000 C 
ATOM     11  H   UNL     1      -3.811  -8.643 -13.042  0.00  0.00    +0.000 HD
ATOM     12  H   UNL     1      -2.180  -8.106 -12.615  0.00  0.00    +0.000 HD
ATOM     13  H   UNL     1      -2.707  -9.760 -12.227  0.00  0.00    +0.000 HD
ENDBRANCH   8  10
BRANCH   8  14
ATOM     14  C   UNL     1      -3.608  -9.330  -9.898  0.00  0.00    +0.000 C 
ATOM     15  H   UNL     1      -3.099  -9.010  -8.982  0.00  0.00    +0.000 HD
ATOM     16  H   UNL     1      -3.117 -10.239 -10.260  0.00  0.00    +0.000 HD
ATOM     17  H   UNL     1      -4.627  -9.592  -9.605  0.00  0.00    +0.000 HD
ENDBRANCH   8  14
ENDBRANCH   4   7
ENDBRANCH   1   4
BRANCH   1  18
ATOM     18  C   UNL     1      -6.472  -6.216  -7.905  0.00  0.00    +0.000 C 
ATOM     19  H   UNL     1      -5.796  -5.651  -7.252  0.00  0.00    +0.000 HD
BRANCH  18  20
ATOM     20  C   UNL     1      -7.827  -5.498  -7.917  0.00  0.00    +0.000 C 
ATOM     21  H   UNL     1      -8.468  -5.863  -8.724  0.00  0.00    +0.000 HD
ATOM     22  H   UNL     1      -8.379  -5.667  -6.988  0.00  0.00    +0.000 HD
ATOM     23  H   UNL     1      -7.701  -4.418  -8.049  0.00  0.00    +0.000 HD
ENDBRANCH  18  20
BRANCH  18  24
ATOM     24  C   UNL     1      -6.621  -7.639  -7.338  0.00  0.00    +0.000 C 
ATOM     25  H   UNL     1      -5.821  -8.283  -7.721  0.00  0.00    +0.000 HD
ATOM     26  H   UNL     1      -7.574  -8.079  -7.655  0.00  0.00    +0.000 HD
BRANCH  24  28
ATOM     27  O   UNL     1      -7.075  -8.586  -5.143  0.00  0.00    +0.000 OA
ATOM     28  C   UNL     1      -6.558  -7.711  -5.828  0.00  0.00    +0.000 C 
ATOM     29  H   UNL     1      -5.988  -6.895  -5.349  0.00  0.00    +0.000 HD
ENDBRANCH  24  28
ENDBRANCH  18  24
ENDBRANCH   1  18
TORSDOF 8
ENDMDL
