MODEL 1
REMARK VINA RESULT:    -3.356      0.000      0.000
REMARK INTER + INTRA:          -3.950
REMARK INTER:                  -3.931
REMARK INTRA:                  -0.019
REMARK UNBOUND:                -0.006
REMARK  Name = 263
REMARK  4 active torsions:
REMARK  status: ('A' for Active; 'I' for Inactive)
REMARK    1  A    between atoms: O_1  and  C_4
REMARK    2  A    between atoms: C_2  and  C_3
REMARK    3  A    between atoms: C_2  and  C_4
REMARK    4  A    between atoms: C_3  and  C_5
REMARK                            x       y       z     vdW  Elec       q    Type
REMARK                         _______ _______ _______ _____ _____    ______ ____
ROOT
ATOM      1  C   UNL     1       4.094   7.087 -18.310  0.00  0.00    +0.000 C 
ATOM      2  H   UNL     1       5.027   6.547 -18.521  0.00  0.00    +0.000 HD
ATOM      3  H   UNL     1       3.401   6.340 -17.904  0.00  0.00    +0.000 HD
ENDROOT
BRANCH   1   4
ATOM      4  C   UNL     1       4.342   8.185 -17.279  0.00  0.00    +0.000 C 
ATOM      5  H   UNL     1       3.714   9.055 -17.504  0.00  0.00    +0.000 HD
ATOM      6  H   UNL     1       5.386   8.516 -17.332  0.00  0.00    +0.000 HD
BRANCH   4   7
ATOM      7  C   UNL     1       4.039   7.705 -15.870  0.00  0.00    +0.000 C 
ATOM      8  H   UNL     1       3.013   7.954 -15.582  0.00  0.00    +0.000 HD
ATOM      9  H   UNL     1       4.165   6.620 -15.789  0.00  0.00    +0.000 HD
ATOM     10  H   UNL     1       4.717   8.179 -15.153  0.00  0.00    +0.000 HD
ENDBRANCH   4   7
ENDBRANCH   1   4
BRANCH   1  11
ATOM     11  C   UNL     1       3.530   7.650 -19.606  0.00  0.00    +0.000 C 
ATOM     12  H   UNL     1       4.009   7.202 -20.483  0.00  0.00    +0.000 HD
ATOM     13  H   UNL     1       2.451   7.477 -19.674  0.00  0.00    +0.000 HD
BRANCH  11  14
ATOM     14  O   UNL     1       3.756   9.053 -19.634  0.00  0.00    +0.000 OA
ATOM     15  H   UNL     1       3.470   9.413 -18.778  0.00  0.00    +0.000 HD
ENDBRANCH  11  14
ENDBRANCH   1  11
TORSDOF 4
ENDMDL
MODEL 2
REMARK VINA RESULT:    -3.209     35.226     35.745
REMARK INTER + INTRA:          -3.777
REMARK INTER:                  -3.774
REMARK INTRA:                  -0.003
REMARK UNBOUND:                -0.006
REMARK  Name = 263
REMARK  4 active torsions:
REMARK  status: ('A' for Active; 'I' for Inactive)
REMARK    1  A    between atoms: O_1  and  C_4
REMARK    2  A    between atoms: C_2  and  C_3
REMARK    3  A    between atoms: C_2  and  C_4
REMARK    4  A    between atoms: C_3  and  C_5
REMARK                            x       y       z     vdW  Elec       q    Type
REMARK                         _______ _______ _______ _____ _____    ______ ____
ROOT
ATOM      1  C   UNL     1       1.740  -3.438  15.357  0.00  0.00    +0.000 C 
ATOM      2  H   UNL     1       1.579  -3.438  14.271  0.00  0.00    +0.000 HD
ATOM      3  H   UNL     1       0.952  -2.799  15.777  0.00  0.00    +0.000 HD
ENDROOT
BRANCH   1   4
ATOM      4  C   UNL     1       1.614  -4.855  15.910  0.00  0.00    +0.000 C 
ATOM      5  H   UNL     1       2.202  -4.949  16.830  0.00  0.00    +0.000 HD
ATOM      6  H   UNL     1       2.021  -5.573  15.189  0.00  0.00    +0.000 HD
BRANCH   4   7
ATOM      7  C   UNL     1       0.167  -5.210  16.209  0.00  0.00    +0.000 C 
ATOM      8  H   UNL     1       0.064  -6.273  16.447  0.00  0.00    +0.000 HD
ATOM      9  H   UNL     1      -0.213  -4.629  17.057  0.00  0.00    +0.000 HD
ATOM     10  H   UNL     1      -0.464  -4.995  15.340  0.00  0.00    +0.000 HD
ENDBRANCH   4   7
ENDBRANCH   1   4
BRANCH   1  11
ATOM     11  C   UNL     1       3.101  -2.832  15.667  0.00  0.00    +0.000 C 
ATOM     12  H   UNL     1       3.092  -2.285  16.615  0.00  0.00    +0.000 HD
ATOM     13  H   UNL     1       3.873  -3.606  15.721  0.00  0.00    +0.000 HD
BRANCH  11  14
ATOM     14  O   UNL     1       3.450  -1.930  14.626  0.00  0.00    +0.000 OA
ATOM     15  H   UNL     1       4.203  -1.400  14.938  0.00  0.00    +0.000 HD
ENDBRANCH  11  14
ENDBRANCH   1  11
TORSDOF 4
ENDMDL
MODEL 3
REMARK VINA RESULT:    -3.072     24.994     25.329
REMARK INTER + INTRA:          -3.616
REMARK INTER:                  -3.613
REMARK INTRA:                  -0.003
REMARK UNBOUND:                -0.006
REMARK  Name = 263
REMARK  4 active torsions:
REMARK  status: ('A' for Active; 'I' for Inactive)
REMARK    1  A    between atoms: O_1  and  C_4
REMARK    2  A    between atoms: C_2  and  C_3
REMARK    3  A    between atoms: C_2  and  C_4
REMARK    4  A    between atoms: C_3  and  C_5
REMARK                            x       y       z     vdW  Elec       q    Type
REMARK                         _______ _______ _______ _____ _____    ______ ____
ROOT
ATOM      1  C   UNL     1       9.891 -10.271  -1.009  0.00  0.00    +0.000 C 
ATOM      2  H   UNL     1       9.868 -11.034  -1.797  0.00  0.00    +0.000 HD
ATOM      3  H   UNL     1      10.320 -10.764  -0.127  0.00  0.00    +0.000 HD
ENDROOT
BRANCH   1   4
ATOM      4  C   UNL     1      10.774  -9.100  -1.434  0.00  0.00    +0.000 C 
ATOM      5  H   UNL     1      11.311  -8.704  -0.564  0.00  0.00    +0.000 HD
ATOM      6  H   UNL     1      10.151  -8.289  -1.828  0.00  0.00    +0.000 HD
BRANCH   4   7
ATOM      7  C   UNL     1      11.782  -9.517  -2.491  0.00  0.00    +0.000 C 
ATOM      8  H   UNL     1      11.326  -9.530  -3.486  0.00  0.00    +0.000 HD
ATOM      9  H   UNL     1      12.636  -8.830  -2.512  0.00  0.00    +0.000 HD
ATOM     10  H   UNL     1      12.161 -10.522  -2.279  0.00  0.00    +0.000 HD
ENDBRANCH   4   7
ENDBRANCH   1   4
BRANCH   1  11
ATOM     11  C   UNL     1       8.472  -9.820  -0.697  0.00  0.00    +0.000 C 
ATOM     12  H   UNL     1       8.080  -9.155  -1.472  0.00  0.00    +0.000 HD
ATOM     13  H   UNL     1       7.798 -10.679  -0.604  0.00  0.00    +0.000 HD
BRANCH  11  14
ATOM     14  O   UNL     1       8.473  -9.123   0.542  0.00  0.00    +0.000 OA
ATOM     15  H   UNL     1       7.554  -9.079   0.855  0.00  0.00    +0.000 HD
ENDBRANCH  11  14
ENDBRANCH   1  11
TORSDOF 4
ENDMDL
MODEL 4
REMARK VINA RESULT:    -3.071     35.074     35.436
REMARK INTER + INTRA:          -3.615
REMARK INTER:                  -3.612
REMARK INTRA:                  -0.003
REMARK UNBOUND:                -0.006
REMARK  Name = 263
REMARK  4 active torsions:
REMARK  status: ('A' for Active; 'I' for Inactive)
REMARK    1  A    between atoms: O_1  and  C_4
REMARK    2  A    between atoms: C_2  and  C_3
REMARK    3  A    between atoms: C_2  and  C_4
REMARK    4  A    between atoms: C_3  and  C_5
REMARK                            x       y       z     vdW  Elec       q    Type
REMARK                         _______ _______ _______ _____ _____    ______ ____
ROOT
ATOM      1  C   UNL     1       1.035  -4.428  15.767  0.00  0.00    +0.000 C 
ATOM      2  H   UNL     1       1.614  -4.756  16.640  0.00  0.00    +0.000 HD
ATOM      3  H   UNL     1       0.022  -4.226  16.138  0.00  0.00    +0.000 HD
ENDROOT
BRANCH   1   4
ATOM      4  C   UNL     1       1.641  -3.157  15.178  0.00  0.00    +0.000 C 
ATOM      5  H   UNL     1       0.975  -2.306  15.366  0.00  0.00    +0.000 HD
ATOM      6  H   UNL     1       1.738  -3.260  14.092  0.00  0.00    +0.000 HD
BRANCH   4   7
ATOM      7  C   UNL     1       3.005  -2.860  15.778  0.00  0.00    +0.000 C 
ATOM      8  H   UNL     1       3.442  -1.959  15.336  0.00  0.00    +0.000 HD
ATOM      9  H   UNL     1       2.933  -2.711  16.862  0.00  0.00    +0.000 HD
ATOM     10  H   UNL     1       3.690  -3.694  15.596  0.00  0.00    +0.000 HD
ENDBRANCH   4   7
ENDBRANCH   1   4
BRANCH   1  11
ATOM     11  C   UNL     1       0.983  -5.552  14.743  0.00  0.00    +0.000 C 
ATOM     12  H   UNL     1       1.402  -6.481  15.141  0.00  0.00    +0.000 HD
ATOM     13  H   UNL     1      -0.047  -5.746  14.424  0.00  0.00    +0.000 HD
BRANCH  11  14
ATOM     14  O   UNL     1       1.735  -5.168  13.600  0.00  0.00    +0.000 OA
ATOM     15  H   UNL     1       1.169  -4.597  13.054  0.00  0.00    +0.000 HD
ENDBRANCH  11  14
ENDBRANCH   1  11
TORSDOF 4
ENDMDL
MODEL 5
REMARK VINA RESULT:    -2.883     24.707     25.182
REMARK INTER + INTRA:          -3.394
REMARK INTER:                  -3.391
REMARK INTRA:                  -0.003
REMARK UNBOUND:                -0.006
REMARK  Name = 263
REMARK  4 active torsions:
REMARK  status: ('A' for Active; 'I' for Inactive)
REMARK    1  A    between atoms: O_1  and  C_4
REMARK    2  A    between atoms: C_2  and  C_3
REMARK    3  A    between atoms: C_2  and  C_4
REMARK    4  A    between atoms: C_3  and  C_5
REMARK                            x       y       z     vdW  Elec       q    Type
REMARK                         _______ _______ _______ _____ _____    ______ ____
ROOT
ATOM      1  C   UNL     1      11.079  -9.952  -1.938  0.00  0.00    +0.000 C 
ATOM      2  H   UNL     1      10.243 -10.586  -2.261  0.00  0.00    +0.000 HD
ATOM      3  H   UNL     1      11.732 -10.598  -1.338  0.00  0.00    +0.000 HD
ENDROOT
BRANCH   1   4
ATOM      4  C   UNL     1      11.839  -9.423  -3.152  0.00  0.00    +0.000 C 
ATOM      5  H   UNL     1      11.807  -8.327  -3.162  0.00  0.00    +0.000 HD
ATOM      6  H   UNL     1      11.358  -9.771  -4.073  0.00  0.00    +0.000 HD
BRANCH   4   7
ATOM      7  C   UNL     1      13.290  -9.876  -3.142  0.00  0.00    +0.000 C 
ATOM      8  H   UNL     1      13.477 -10.613  -3.929  0.00  0.00    +0.000 HD
ATOM      9  H   UNL     1      13.967  -9.028  -3.295  0.00  0.00    +0.000 HD
ATOM     10  H   UNL     1      13.537 -10.337  -2.180  0.00  0.00    +0.000 HD
ENDBRANCH   4   7
ENDBRANCH   1   4
BRANCH   1  11
ATOM     11  C   UNL     1      10.551  -8.820  -1.069  0.00  0.00    +0.000 C 
ATOM     12  H   UNL     1      11.230  -7.963  -1.066  0.00  0.00    +0.000 HD
ATOM     13  H   UNL     1       9.569  -8.483  -1.417  0.00  0.00    +0.000 HD
BRANCH  11  14
ATOM     14  O   UNL     1      10.410  -9.293   0.264  0.00  0.00    +0.000 OA
ATOM     15  H   UNL     1      11.006  -8.769   0.825  0.00  0.00    +0.000 HD
ENDBRANCH  11  14
ENDBRANCH   1  11
TORSDOF 4
ENDMDL
MODEL 6
REMARK VINA RESULT:    -2.817     24.845     25.106
REMARK INTER + INTRA:          -3.316
REMARK INTER:                  -3.290
REMARK INTRA:                  -0.026
REMARK UNBOUND:                -0.006
REMARK  Name = 263
REMARK  4 active torsions:
REMARK  status: ('A' for Active; 'I' for Inactive)
REMARK    1  A    between atoms: O_1  and  C_4
REMARK    2  A    between atoms: C_2  and  C_3
REMARK    3  A    between atoms: C_2  and  C_4
REMARK    4  A    between atoms: C_3  and  C_5
REMARK                            x       y       z     vdW  Elec       q    Type
REMARK                         _______ _______ _______ _____ _____    ______ ____
ROOT
ATOM      1  C   UNL     1      11.824 -10.379  -3.339  0.00  0.00    +0.000 C 
ATOM      2  H   UNL     1      11.367 -11.339  -3.067  0.00  0.00    +0.000 HD
ATOM      3  H   UNL     1      11.353 -10.081  -4.285  0.00  0.00    +0.000 HD
ENDROOT
BRANCH   1   4
ATOM      4  C   UNL     1      11.539  -9.335  -2.262  0.00  0.00    +0.000 C 
ATOM      5  H   UNL     1      11.239  -8.390  -2.730  0.00  0.00    +0.000 HD
ATOM      6  H   UNL     1      12.450  -9.138  -1.686  0.00  0.00    +0.000 HD
BRANCH   4   7
ATOM      7  C   UNL     1      10.439  -9.792  -1.320  0.00  0.00    +0.000 C 
ATOM      8  H   UNL     1      10.149  -8.990  -0.634  0.00  0.00    +0.000 HD
ATOM      9  H   UNL     1       9.549 -10.106  -1.878  0.00  0.00    +0.000 HD
ATOM     10  H   UNL     1      10.780 -10.643  -0.721  0.00  0.00    +0.000 HD
ENDBRANCH   4   7
ENDBRANCH   1   4
BRANCH   1  11
ATOM     11  C   UNL     1      13.317 -10.571  -3.556  0.00  0.00    +0.000 C 
ATOM     12  H   UNL     1      13.653 -11.552  -3.205  0.00  0.00    +0.000 HD
ATOM     13  H   UNL     1      13.577 -10.474  -4.615  0.00  0.00    +0.000 HD
BRANCH  11  14
ATOM     14  O   UNL     1      14.019  -9.567  -2.834  0.00  0.00    +0.000 OA
ATOM     15  H   UNL     1      14.020  -9.826  -1.898  0.00  0.00    +0.000 HD
ENDBRANCH  11  14
ENDBRANCH   1  11
TORSDOF 4
ENDMDL
MODEL 7
REMARK VINA RESULT:    -2.815     34.241     34.887
REMARK INTER + INTRA:          -3.315
REMARK INTER:                  -3.310
REMARK INTRA:                  -0.005
REMARK UNBOUND:                -0.006
REMARK  Name = 263
REMARK  4 active torsions:
REMARK  status: ('A' for Active; 'I' for Inactive)
REMARK    1  A    between atoms: O_1  and  C_4
REMARK    2  A    between atoms: C_2  and  C_3
REMARK    3  A    between atoms: C_2  and  C_4
REMARK    4  A    between atoms: C_3  and  C_5
REMARK                            x       y       z     vdW  Elec       q    Type
REMARK                         _______ _______ _______ _____ _____    ______ ____
ROOT
ATOM      1  C   UNL     1     -18.315  -1.057   6.873  0.00  0.00    +0.000 C 
ATOM      2  H   UNL     1     -17.481  -0.792   6.210  0.00  0.00    +0.000 HD
ATOM      3  H   UNL     1     -18.901  -0.138   6.999  0.00  0.00    +0.000 HD
ENDROOT
BRANCH   1   4
ATOM      4  C   UNL     1     -19.175  -2.142   6.230  0.00  0.00    +0.000 C 
ATOM      5  H   UNL     1     -20.079  -1.694   5.799  0.00  0.00    +0.000 HD
ATOM      6  H   UNL     1     -19.500  -2.860   6.992  0.00  0.00    +0.000 HD
BRANCH   4   7
ATOM      7  C   UNL     1     -18.419  -2.878   5.137  0.00  0.00    +0.000 C 
ATOM      8  H   UNL     1     -19.063  -3.606   4.634  0.00  0.00    +0.000 HD
ATOM      9  H   UNL     1     -18.038  -2.179   4.384  0.00  0.00    +0.000 HD
ATOM     10  H   UNL     1     -17.566  -3.417   5.562  0.00  0.00    +0.000 HD
ENDBRANCH   4   7
ENDBRANCH   1   4
BRANCH   1  11
ATOM     11  C   UNL     1     -17.770  -1.499   8.223  0.00  0.00    +0.000 C 
ATOM     12  H   UNL     1     -18.481  -1.298   9.030  0.00  0.00    +0.000 HD
ATOM     13  H   UNL     1     -17.539  -2.569   8.223  0.00  0.00    +0.000 HD
BRANCH  11  14
ATOM     14  O   UNL     1     -16.569  -0.786   8.488  0.00  0.00    +0.000 OA
ATOM     15  H   UNL     1     -16.591   0.032   7.964  0.00  0.00    +0.000 HD
ENDBRANCH  11  14
ENDBRANCH   1  11
TORSDOF 4
ENDMDL
MODEL 8
REMARK VINA RESULT:    -2.775     17.890     18.546
REMARK INTER + INTRA:          -3.267
REMARK INTER:                  -3.261
REMARK INTRA:                  -0.006
REMARK UNBOUND:                -0.006
REMARK  Name = 263
REMARK  4 active torsions:
REMARK  status: ('A' for Active; 'I' for Inactive)
REMARK    1  A    between atoms: O_1  and  C_4
REMARK    2  A    between atoms: C_2  and  C_3
REMARK    3  A    between atoms: C_2  and  C_4
REMARK    4  A    between atoms: C_3  and  C_5
REMARK                            x       y       z     vdW  Elec       q    Type
REMARK                         _______ _______ _______ _____ _____    ______ ____
ROOT
ATOM      1  C   UNL     1       8.352  -7.648  -8.645  0.00  0.00    +0.000 C 
ATOM      2  H   UNL     1       8.492  -7.787  -7.565  0.00  0.00    +0.000 HD
ATOM      3  H   UNL     1       7.385  -7.142  -8.759  0.00  0.00    +0.000 HD
ENDROOT
BRANCH   1   4
ATOM      4  C   UNL     1       9.469  -6.776  -9.213  0.00  0.00    +0.000 C 
ATOM      5  H   UNL     1       9.743  -7.128 -10.214  0.00  0.00    +0.000 HD
ATOM      6  H   UNL     1      10.362  -6.858  -8.584  0.00  0.00    +0.000 HD
BRANCH   4   7
ATOM      7  C   UNL     1       9.049  -5.318  -9.299  0.00  0.00    +0.000 C 
ATOM      8  H   UNL     1       9.139  -4.942 -10.323  0.00  0.00    +0.000 HD
ATOM      9  H   UNL     1       8.009  -5.189  -8.976  0.00  0.00    +0.000 HD
ATOM     10  H   UNL     1       9.682  -4.701  -8.653  0.00  0.00    +0.000 HD
ENDBRANCH   4   7
ENDBRANCH   1   4
BRANCH   1  11
ATOM     11  C   UNL     1       8.296  -9.005  -9.329  0.00  0.00    +0.000 C 
ATOM     12  H   UNL     1       9.133  -9.143 -10.021  0.00  0.00    +0.000 HD
ATOM     13  H   UNL     1       8.317  -9.817  -8.594  0.00  0.00    +0.000 HD
BRANCH  11  14
ATOM     14  O   UNL     1       7.082  -9.101 -10.060  0.00  0.00    +0.000 OA
ATOM     15  H   UNL     1       7.266  -8.823 -10.973  0.00  0.00    +0.000 HD
ENDBRANCH  11  14
ENDBRANCH   1  11
TORSDOF 4
ENDMDL
MODEL 9
REMARK VINA RESULT:    -2.763     20.339     21.115
REMARK INTER + INTRA:          -3.254
REMARK INTER:                  -3.236
REMARK INTRA:                  -0.018
REMARK UNBOUND:                -0.006
REMARK  Name = 263
REMARK  4 active torsions:
REMARK  status: ('A' for Active; 'I' for Inactive)
REMARK    1  A    between atoms: O_1  and  C_4
REMARK    2  A    between atoms: C_2  and  C_3
REMARK    3  A    between atoms: C_2  and  C_4
REMARK    4  A    between atoms: C_3  and  C_5
REMARK                            x       y       z     vdW  Elec       q    Type
REMARK                         _______ _______ _______ _____ _____    ______ ____
ROOT
ATOM      1  C   UNL     1       8.206  -1.485  -0.613  0.00  0.00    +0.000 C 
ATOM      2  H   UNL     1       7.854  -0.472  -0.848  0.00  0.00    +0.000 HD
ATOM      3  H   UNL     1       7.610  -2.162  -1.239  0.00  0.00    +0.000 HD
ENDROOT
BRANCH   1   4
ATOM      4  C   UNL     1       9.687  -1.623  -0.956  0.00  0.00    +0.000 C 
ATOM      5  H   UNL     1      10.160  -2.341  -0.275  0.00  0.00    +0.000 HD
ATOM      6  H   UNL     1      10.192  -0.661  -0.817  0.00  0.00    +0.000 HD
BRANCH   4   7
ATOM      7  C   UNL     1       9.886  -2.093  -2.387  0.00  0.00    +0.000 C 
ATOM      8  H   UNL     1      10.948  -2.123  -2.647  0.00  0.00    +0.000 HD
ATOM      9  H   UNL     1       9.467  -3.095  -2.534  0.00  0.00    +0.000 HD
ATOM     10  H   UNL     1       9.386  -1.412  -3.083  0.00  0.00    +0.000 HD
ENDBRANCH   4   7
ENDBRANCH   1   4
BRANCH   1  11
ATOM     11  C   UNL     1       7.938  -1.787   0.854  0.00  0.00    +0.000 C 
ATOM     12  H   UNL     1       7.254  -1.057   1.298  0.00  0.00    +0.000 HD
ATOM     13  H   UNL     1       7.506  -2.786   0.978  0.00  0.00    +0.000 HD
BRANCH  11  14
ATOM     14  O   UNL     1       9.169  -1.745   1.564  0.00  0.00    +0.000 OA
ATOM     15  H   UNL     1       9.201  -0.901   2.045  0.00  0.00    +0.000 HD
ENDBRANCH  11  14
ENDBRANCH   1  11
TORSDOF 4
ENDMDL
MODEL 10
REMARK VINA RESULT:    -2.760     38.248     39.346
REMARK INTER + INTRA:          -3.250
REMARK INTER:                  -3.234
REMARK INTRA:                  -0.016
REMARK UNBOUND:                -0.006
REMARK  Name = 263
REMARK  4 active torsions:
REMARK  status: ('A' for Active; 'I' for Inactive)
REMARK    1  A    between atoms: O_1  and  C_4
REMARK    2  A    between atoms: C_2  and  C_3
REMARK    3  A    between atoms: C_2  and  C_4
REMARK    4  A    between atoms: C_3  and  C_5
REMARK                            x       y       z     vdW  Elec       q    Type
REMARK                         _______ _______ _______ _____ _____    ______ ____
ROOT
ATOM      1  C   UNL     1      -8.476   8.386  18.730  0.00  0.00    +0.000 C 
ATOM      2  H   UNL     1      -8.325   9.378  19.176  0.00  0.00    +0.000 HD
ATOM      3  H   UNL     1      -7.511   8.106  18.289  0.00  0.00    +0.000 HD
ENDROOT
BRANCH   1   4
ATOM      4  C   UNL     1      -8.872   7.378  19.806  0.00  0.00    +0.000 C 
ATOM      5  H   UNL     1      -8.130   6.572  19.851  0.00  0.00    +0.000 HD
ATOM      6  H   UNL     1      -9.834   6.920  19.551  0.00  0.00    +0.000 HD
BRANCH   4   7
ATOM      7  C   UNL     1      -8.975   8.034  21.173  0.00  0.00    +0.000 C 
ATOM      8  H   UNL     1      -8.531   9.034  21.164  0.00  0.00    +0.000 HD
ATOM      9  H   UNL     1     -10.020   8.123  21.487  0.00  0.00    +0.000 HD
ATOM     10  H   UNL     1      -8.446   7.435  21.922  0.00  0.00    +0.000 HD
ENDBRANCH   4   7
ENDBRANCH   1   4
BRANCH   1  11
ATOM     11  C   UNL     1      -9.526   8.479  17.633  0.00  0.00    +0.000 C 
ATOM     12  H   UNL     1     -10.380   9.090  17.942  0.00  0.00    +0.000 HD
ATOM     13  H   UNL     1      -9.104   8.911  16.720  0.00  0.00    +0.000 HD
BRANCH  11  14
ATOM     14  O   UNL     1      -9.990   7.170  17.330  0.00  0.00    +0.000 OA
ATOM     15  H   UNL     1     -10.753   6.990  17.904  0.00  0.00    +0.000 HD
ENDBRANCH  11  14
ENDBRANCH   1  11
TORSDOF 4
ENDMDL
