MODEL 1
REMARK VINA RESULT:    -4.547      0.000      0.000
REMARK INTER + INTRA:          -8.707
REMARK INTER:                  -7.243
REMARK INTRA:                  -1.464
REMARK UNBOUND:                -1.236
REMARK  Name = 8193
REMARK  12 active torsions:
REMARK  status: ('A' for Active; 'I' for Inactive)
REMARK    1  A    between atoms: O_1  and  C_12
REMARK    2  A    between atoms: C_2  and  C_3
REMARK    3  A    between atoms: C_2  and  C_4
REMARK    4  A    between atoms: C_3  and  C_5
REMARK    5  A    between atoms: C_4  and  C_6
REMARK    6  A    between atoms: C_5  and  C_7
REMARK    7  A    between atoms: C_6  and  C_8
REMARK    8  A    between atoms: C_7  and  C_9
REMARK    9  A    between atoms: C_8  and  C_10
REMARK   10  A    between atoms: C_9  and  C_11
REMARK   11  A    between atoms: C_10  and  C_12
REMARK   12  A    between atoms: C_11  and  C_13
REMARK                            x       y       z     vdW  Elec       q    Type
REMARK                         _______ _______ _______ _____ _____    ______ ____
ROOT
ATOM      1  C   UNL     1       3.119  -4.617  16.423  0.00  0.00    +0.000 C 
ATOM      2  H   UNL     1       2.642  -5.138  17.262  0.00  0.00    +0.000 HD
ATOM      3  H   UNL     1       3.827  -3.900  16.856  0.00  0.00    +0.000 HD
ENDROOT
BRANCH   1   4
ATOM      4  C   UNL     1       2.048  -3.847  15.641  0.00  0.00    +0.000 C 
ATOM      5  H   UNL     1       2.508  -3.439  14.732  0.00  0.00    +0.000 HD
ATOM      6  H   UNL     1       1.728  -2.984  16.239  0.00  0.00    +0.000 HD
BRANCH   4   7
ATOM      7  C   UNL     1       0.802  -4.648  15.246  0.00  0.00    +0.000 C 
ATOM      8  H   UNL     1       1.062  -5.348  14.442  0.00  0.00    +0.000 HD
ATOM      9  H   UNL     1       0.055  -3.958  14.836  0.00  0.00    +0.000 HD
BRANCH   7  10
ATOM     10  C   UNL     1       0.182  -5.423  16.412  0.00  0.00    +0.000 C 
ATOM     11  H   UNL     1      -0.488  -4.757  16.970  0.00  0.00    +0.000 HD
ATOM     12  H   UNL     1       0.976  -5.727  17.105  0.00  0.00    +0.000 HD
BRANCH  10  13
ATOM     13  C   UNL     1      -0.606  -6.660  15.969  0.00  0.00    +0.000 C 
ATOM     14  H   UNL     1      -1.674  -6.412  15.932  0.00  0.00    +0.000 HD
ATOM     15  H   UNL     1      -0.308  -6.920  14.946  0.00  0.00    +0.000 HD
BRANCH  13  16
ATOM     16  C   UNL     1      -0.404  -7.871  16.879  0.00  0.00    +0.000 C 
ATOM     17  H   UNL     1       0.311  -8.565  16.422  0.00  0.00    +0.000 HD
ATOM     18  H   UNL     1      -1.351  -8.411  16.994  0.00  0.00    +0.000 HD
BRANCH  16  19
ATOM     19  C   UNL     1       0.103  -7.454  18.252  0.00  0.00    +0.000 C 
ATOM     20  H   UNL     1       0.525  -8.309  18.790  0.00  0.00    +0.000 HD
ATOM     21  H   UNL     1       0.886  -6.695  18.152  0.00  0.00    +0.000 HD
ATOM     22  H   UNL     1      -0.706  -7.031  18.856  0.00  0.00    +0.000 HD
ENDBRANCH  16  19
ENDBRANCH  13  16
ENDBRANCH  10  13
ENDBRANCH   7  10
ENDBRANCH   4   7
ENDBRANCH   1   4
BRANCH   1  23
ATOM     23  C   UNL     1       3.888  -5.625  15.566  0.00  0.00    +0.000 C 
ATOM     24  H   UNL     1       4.934  -5.304  15.481  0.00  0.00    +0.000 HD
ATOM     25  H   UNL     1       3.472  -5.623  14.550  0.00  0.00    +0.000 HD
BRANCH  23  26
ATOM     26  C   UNL     1       3.844  -7.051  16.123  0.00  0.00    +0.000 C 
ATOM     27  H   UNL     1       4.849  -7.486  16.075  0.00  0.00    +0.000 HD
ATOM     28  H   UNL     1       3.566  -7.010  17.184  0.00  0.00    +0.000 HD
BRANCH  26  29
ATOM     29  C   UNL     1       2.862  -7.962  15.381  0.00  0.00    +0.000 C 
ATOM     30  H   UNL     1       1.882  -7.918  15.870  0.00  0.00    +0.000 HD
ATOM     31  H   UNL     1       3.207  -9.001  15.439  0.00  0.00    +0.000 HD
BRANCH  29  32
ATOM     32  C   UNL     1       2.726  -7.548  13.912  0.00  0.00    +0.000 C 
ATOM     33  H   UNL     1       1.667  -7.478  13.636  0.00  0.00    +0.000 HD
ATOM     34  H   UNL     1       3.142  -6.544  13.762  0.00  0.00    +0.000 HD
BRANCH  32  35
ATOM     35  C   UNL     1       3.424  -8.525  12.972  0.00  0.00    +0.000 C 
ATOM     36  H   UNL     1       3.531  -9.506  13.445  0.00  0.00    +0.000 HD
ATOM     37  H   UNL     1       2.854  -8.640  12.044  0.00  0.00    +0.000 HD
BRANCH  35  38
ATOM     38  O   UNL     1       4.719  -8.040  12.644  0.00  0.00    +0.000 OA
ATOM     39  H   UNL     1       4.677  -7.069  12.683  0.00  0.00    +0.000 HD
ENDBRANCH  35  38
ENDBRANCH  32  35
ENDBRANCH  29  32
ENDBRANCH  26  29
ENDBRANCH  23  26
ENDBRANCH   1  23
TORSDOF 12
ENDMDL
MODEL 2
REMARK VINA RESULT:    -4.250     14.387     16.341
REMARK INTER + INTRA:          -8.219
REMARK INTER:                  -7.657
REMARK INTRA:                  -0.562
REMARK UNBOUND:                -1.236
REMARK  Name = 8193
REMARK  12 active torsions:
REMARK  status: ('A' for Active; 'I' for Inactive)
REMARK    1  A    between atoms: O_1  and  C_12
REMARK    2  A    between atoms: C_2  and  C_3
REMARK    3  A    between atoms: C_2  and  C_4
REMARK    4  A    between atoms: C_3  and  C_5
REMARK    5  A    between atoms: C_4  and  C_6
REMARK    6  A    between atoms: C_5  and  C_7
REMARK    7  A    between atoms: C_6  and  C_8
REMARK    8  A    between atoms: C_7  and  C_9
REMARK    9  A    between atoms: C_8  and  C_10
REMARK   10  A    between atoms: C_9  and  C_11
REMARK   11  A    between atoms: C_10  and  C_12
REMARK   12  A    between atoms: C_11  and  C_13
REMARK                            x       y       z     vdW  Elec       q    Type
REMARK                         _______ _______ _______ _____ _____    ______ ____
ROOT
ATOM      1  C   UNL     1       6.595 -12.006   1.087  0.00  0.00    +0.000 C 
ATOM      2  H   UNL     1       7.475 -12.253   1.694  0.00  0.00    +0.000 HD
ATOM      3  H   UNL     1       6.414 -10.932   1.212  0.00  0.00    +0.000 HD
ENDROOT
BRANCH   1   4
ATOM      4  C   UNL     1       5.386 -12.781   1.624  0.00  0.00    +0.000 C 
ATOM      5  H   UNL     1       5.507 -12.907   2.707  0.00  0.00    +0.000 HD
ATOM      6  H   UNL     1       5.395 -13.790   1.193  0.00  0.00    +0.000 HD
BRANCH   4   7
ATOM      7  C   UNL     1       4.014 -12.153   1.351  0.00  0.00    +0.000 C 
ATOM      8  H   UNL     1       3.483 -12.756   0.604  0.00  0.00    +0.000 HD
ATOM      9  H   UNL     1       4.163 -11.160   0.910  0.00  0.00    +0.000 HD
BRANCH   7  10
ATOM     10  C   UNL     1       3.146 -12.020   2.605  0.00  0.00    +0.000 C 
ATOM     11  H   UNL     1       2.510 -11.131   2.510  0.00  0.00    +0.000 HD
ATOM     12  H   UNL     1       3.793 -11.855   3.475  0.00  0.00    +0.000 HD
BRANCH  10  13
ATOM     13  C   UNL     1       2.255 -13.241   2.860  0.00  0.00    +0.000 C 
ATOM     14  H   UNL     1       1.300 -12.907   3.284  0.00  0.00    +0.000 HD
ATOM     15  H   UNL     1       2.025 -13.716   1.898  0.00  0.00    +0.000 HD
BRANCH  13  16
ATOM     16  C   UNL     1       2.886 -14.272   3.796  0.00  0.00    +0.000 C 
ATOM     17  H   UNL     1       2.190 -14.511   4.608  0.00  0.00    +0.000 HD
ATOM     18  H   UNL     1       3.789 -13.853   4.255  0.00  0.00    +0.000 HD
BRANCH  16  19
ATOM     19  C   UNL     1       3.250 -15.547   3.050  0.00  0.00    +0.000 C 
ATOM     20  H   UNL     1       2.570 -15.718   2.210  0.00  0.00    +0.000 HD
ATOM     21  H   UNL     1       4.268 -15.476   2.654  0.00  0.00    +0.000 HD
ATOM     22  H   UNL     1       3.203 -16.416   3.714  0.00  0.00    +0.000 HD
ENDBRANCH  16  19
ENDBRANCH  13  16
ENDBRANCH  10  13
ENDBRANCH   7  10
ENDBRANCH   4   7
ENDBRANCH   1   4
BRANCH   1  23
ATOM     23  C   UNL     1       6.895 -12.296  -0.386  0.00  0.00    +0.000 C 
ATOM     24  H   UNL     1       6.559 -11.447  -0.996  0.00  0.00    +0.000 HD
ATOM     25  H   UNL     1       6.311 -13.167  -0.706  0.00  0.00    +0.000 HD
BRANCH  23  26
ATOM     26  C   UNL     1       8.379 -12.556  -0.662  0.00  0.00    +0.000 C 
ATOM     27  H   UNL     1       8.879 -12.813   0.279  0.00  0.00    +0.000 HD
ATOM     28  H   UNL     1       8.471 -13.429  -1.319  0.00  0.00    +0.000 HD
BRANCH  26  29
ATOM     29  C   UNL     1       9.093 -11.365  -1.306  0.00  0.00    +0.000 C 
ATOM     30  H   UNL     1       8.359 -10.728  -1.811  0.00  0.00    +0.000 HD
ATOM     31  H   UNL     1       9.793 -11.724  -2.070  0.00  0.00    +0.000 HD
BRANCH  29  32
ATOM     32  C   UNL     1       9.855 -10.544  -0.259  0.00  0.00    +0.000 C 
ATOM     33  H   UNL     1       9.718 -10.984   0.737  0.00  0.00    +0.000 HD
ATOM     34  H   UNL     1      10.933 -10.585  -0.458  0.00  0.00    +0.000 HD
BRANCH  32  35
ATOM     35  C   UNL     1       9.404  -9.089  -0.229  0.00  0.00    +0.000 C 
ATOM     36  H   UNL     1       9.545  -8.662   0.769  0.00  0.00    +0.000 HD
ATOM     37  H   UNL     1       9.974  -8.495  -0.951  0.00  0.00    +0.000 HD
BRANCH  35  38
ATOM     38  O   UNL     1       8.027  -9.001  -0.567  0.00  0.00    +0.000 OA
ATOM     39  H   UNL     1       7.931  -9.358  -1.466  0.00  0.00    +0.000 HD
ENDBRANCH  35  38
ENDBRANCH  32  35
ENDBRANCH  29  32
ENDBRANCH  26  29
ENDBRANCH  23  26
ENDBRANCH   1  23
TORSDOF 12
ENDMDL
MODEL 3
REMARK VINA RESULT:    -4.219     23.062     25.252
REMARK INTER + INTRA:          -8.168
REMARK INTER:                  -7.034
REMARK INTRA:                  -1.134
REMARK UNBOUND:                -1.236
REMARK  Name = 8193
REMARK  12 active torsions:
REMARK  status: ('A' for Active; 'I' for Inactive)
REMARK    1  A    between atoms: O_1  and  C_12
REMARK    2  A    between atoms: C_2  and  C_3
REMARK    3  A    between atoms: C_2  and  C_4
REMARK    4  A    between atoms: C_3  and  C_5
REMARK    5  A    between atoms: C_4  and  C_6
REMARK    6  A    between atoms: C_5  and  C_7
REMARK    7  A    between atoms: C_6  and  C_8
REMARK    8  A    between atoms: C_7  and  C_9
REMARK    9  A    between atoms: C_8  and  C_10
REMARK   10  A    between atoms: C_9  and  C_11
REMARK   11  A    between atoms: C_10  and  C_12
REMARK   12  A    between atoms: C_11  and  C_13
REMARK                            x       y       z     vdW  Elec       q    Type
REMARK                         _______ _______ _______ _____ _____    ______ ____
ROOT
ATOM      1  C   UNL     1      -6.156  -6.813  -9.673  0.00  0.00    +0.000 C 
ATOM      2  H   UNL     1      -6.267  -7.868  -9.396  0.00  0.00    +0.000 HD
ATOM      3  H   UNL     1      -6.992  -6.570 -10.341  0.00  0.00    +0.000 HD
ENDROOT
BRANCH   1   4
ATOM      4  C   UNL     1      -4.840  -6.634 -10.440  0.00  0.00    +0.000 C 
ATOM      5  H   UNL     1      -4.872  -5.670 -10.963  0.00  0.00    +0.000 HD
ATOM      6  H   UNL     1      -4.779  -7.405 -11.218  0.00  0.00    +0.000 HD
BRANCH   4   7
ATOM      7  C   UNL     1      -3.561  -6.695  -9.597  0.00  0.00    +0.000 C 
ATOM      8  H   UNL     1      -3.800  -6.440  -8.558  0.00  0.00    +0.000 HD
ATOM      9  H   UNL     1      -2.864  -5.930  -9.960  0.00  0.00    +0.000 HD
BRANCH   7  10
ATOM     10  C   UNL     1      -2.871  -8.062  -9.638  0.00  0.00    +0.000 C 
ATOM     11  H   UNL     1      -1.792  -7.924  -9.500  0.00  0.00    +0.000 HD
ATOM     12  H   UNL     1      -3.009  -8.506 -10.632  0.00  0.00    +0.000 HD
BRANCH  10  13
ATOM     13  C   UNL     1      -3.387  -9.034  -8.572  0.00  0.00    +0.000 C 
ATOM     14  H   UNL     1      -2.532  -9.468  -8.037  0.00  0.00    +0.000 HD
ATOM     15  H   UNL     1      -3.968  -8.471  -7.832  0.00  0.00    +0.000 HD
BRANCH  13  16
ATOM     16  C   UNL     1      -4.247 -10.163  -9.140  0.00  0.00    +0.000 C 
ATOM     17  H   UNL     1      -5.309  -9.923  -9.008  0.00  0.00    +0.000 HD
ATOM     18  H   UNL     1      -4.053 -11.090  -8.588  0.00  0.00    +0.000 HD
BRANCH  16  19
ATOM     19  C   UNL     1      -3.959 -10.391 -10.616  0.00  0.00    +0.000 C 
ATOM     20  H   UNL     1      -4.479  -9.653 -11.235  0.00  0.00    +0.000 HD
ATOM     21  H   UNL     1      -2.885 -10.301 -10.810  0.00  0.00    +0.000 HD
ATOM     22  H   UNL     1      -4.279 -11.390 -10.928  0.00  0.00    +0.000 HD
ENDBRANCH  16  19
ENDBRANCH  13  16
ENDBRANCH  10  13
ENDBRANCH   7  10
ENDBRANCH   4   7
ENDBRANCH   1   4
BRANCH   1  23
ATOM     23  C   UNL     1      -6.249  -5.943  -8.418  0.00  0.00    +0.000 C 
ATOM     24  H   UNL     1      -6.695  -4.975  -8.681  0.00  0.00    +0.000 HD
ATOM     25  H   UNL     1      -5.237  -5.736  -8.049  0.00  0.00    +0.000 HD
BRANCH  23  26
ATOM     26  C   UNL     1      -7.071  -6.585  -7.296  0.00  0.00    +0.000 C 
ATOM     27  H   UNL     1      -7.111  -5.899  -6.442  0.00  0.00    +0.000 HD
ATOM     28  H   UNL     1      -8.103  -6.721  -7.643  0.00  0.00    +0.000 HD
BRANCH  26  29
ATOM     29  C   UNL     1      -6.515  -7.935  -6.834  0.00  0.00    +0.000 C 
ATOM     30  H   UNL     1      -5.701  -7.769  -6.118  0.00  0.00    +0.000 HD
ATOM     31  H   UNL     1      -6.089  -8.472  -7.691  0.00  0.00    +0.000 HD
BRANCH  29  32
ATOM     32  C   UNL     1      -7.608  -8.791  -6.184  0.00  0.00    +0.000 C 
ATOM     33  H   UNL     1      -8.555  -8.238  -6.160  0.00  0.00    +0.000 HD
ATOM     34  H   UNL     1      -7.799  -9.685  -6.791  0.00  0.00    +0.000 HD
BRANCH  32  35
ATOM     35  C   UNL     1      -7.240  -9.216  -4.768  0.00  0.00    +0.000 C 
ATOM     36  H   UNL     1      -7.848  -8.679  -4.034  0.00  0.00    +0.000 HD
ATOM     37  H   UNL     1      -7.395 -10.292  -4.636  0.00  0.00    +0.000 HD
BRANCH  35  38
ATOM     38  O   UNL     1      -5.871  -8.928  -4.516  0.00  0.00    +0.000 OA
ATOM     39  H   UNL     1      -5.444  -8.799  -5.380  0.00  0.00    +0.000 HD
ENDBRANCH  35  38
ENDBRANCH  32  35
ENDBRANCH  29  32
ENDBRANCH  26  29
ENDBRANCH  23  26
ENDBRANCH   1  23
TORSDOF 12
ENDMDL
MODEL 4
REMARK VINA RESULT:    -4.209     15.170     16.660
REMARK INTER + INTRA:          -8.152
REMARK INTER:                  -7.702
REMARK INTRA:                  -0.451
REMARK UNBOUND:                -1.236
REMARK  Name = 8193
REMARK  12 active torsions:
REMARK  status: ('A' for Active; 'I' for Inactive)
REMARK    1  A    between atoms: O_1  and  C_12
REMARK    2  A    between atoms: C_2  and  C_3
REMARK    3  A    between atoms: C_2  and  C_4
REMARK    4  A    between atoms: C_3  and  C_5
REMARK    5  A    between atoms: C_4  and  C_6
REMARK    6  A    between atoms: C_5  and  C_7
REMARK    7  A    between atoms: C_6  and  C_8
REMARK    8  A    between atoms: C_7  and  C_9
REMARK    9  A    between atoms: C_8  and  C_10
REMARK   10  A    between atoms: C_9  and  C_11
REMARK   11  A    between atoms: C_10  and  C_12
REMARK   12  A    between atoms: C_11  and  C_13
REMARK                            x       y       z     vdW  Elec       q    Type
REMARK                         _______ _______ _______ _____ _____    ______ ____
ROOT
ATOM      1  C   UNL     1      -9.462 -14.792   6.494  0.00  0.00    +0.000 C 
ATOM      2  H   UNL     1      -9.458 -13.932   5.813  0.00  0.00    +0.000 HD
ATOM      3  H   UNL     1      -9.500 -15.692   5.868  0.00  0.00    +0.000 HD
ENDROOT
BRANCH   1   4
ATOM      4  C   UNL     1     -10.726 -14.735   7.361  0.00  0.00    +0.000 C 
ATOM      5  H   UNL     1     -11.479 -14.133   6.837  0.00  0.00    +0.000 HD
ATOM      6  H   UNL     1     -10.492 -14.198   8.288  0.00  0.00    +0.000 HD
BRANCH   4   7
ATOM      7  C   UNL     1     -11.346 -16.088   7.730  0.00  0.00    +0.000 C 
ATOM      8  H   UNL     1     -10.582 -16.720   8.198  0.00  0.00    +0.000 HD
ATOM      9  H   UNL     1     -11.657 -16.595   6.809  0.00  0.00    +0.000 HD
BRANCH   7  10
ATOM     10  C   UNL     1     -12.550 -15.968   8.668  0.00  0.00    +0.000 C 
ATOM     11  H   UNL     1     -12.348 -16.534   9.586  0.00  0.00    +0.000 HD
ATOM     12  H   UNL     1     -13.423 -16.435   8.194  0.00  0.00    +0.000 HD
BRANCH  10  13
ATOM     13  C   UNL     1     -12.888 -14.521   9.041  0.00  0.00    +0.000 C 
ATOM     14  H   UNL     1     -11.991 -14.035   9.444  0.00  0.00    +0.000 HD
ATOM     15  H   UNL     1     -13.160 -13.976   8.129  0.00  0.00    +0.000 HD
BRANCH  13  16
ATOM     16  C   UNL     1     -14.022 -14.403  10.060  0.00  0.00    +0.000 C 
ATOM     17  H   UNL     1     -13.668 -14.717  11.048  0.00  0.00    +0.000 HD
ATOM     18  H   UNL     1     -14.843 -15.073   9.780  0.00  0.00    +0.000 HD
BRANCH  16  19
ATOM     19  C   UNL     1     -14.548 -12.977  10.140  0.00  0.00    +0.000 C 
ATOM     20  H   UNL     1     -13.966 -12.385  10.854  0.00  0.00    +0.000 HD
ATOM     21  H   UNL     1     -14.478 -12.492   9.161  0.00  0.00    +0.000 HD
ATOM     22  H   UNL     1     -15.596 -12.963  10.454  0.00  0.00    +0.000 HD
ENDBRANCH  16  19
ENDBRANCH  13  16
ENDBRANCH  10  13
ENDBRANCH   7  10
ENDBRANCH   4   7
ENDBRANCH   1   4
BRANCH   1  23
ATOM     23  C   UNL     1      -8.167 -14.803   7.310  0.00  0.00    +0.000 C 
ATOM     24  H   UNL     1      -7.556 -15.662   7.006  0.00  0.00    +0.000 HD
ATOM     25  H   UNL     1      -8.413 -14.948   8.369  0.00  0.00    +0.000 HD
BRANCH  23  26
ATOM     26  C   UNL     1      -7.344 -13.521   7.156  0.00  0.00    +0.000 C 
ATOM     27  H   UNL     1      -7.970 -12.745   6.698  0.00  0.00    +0.000 HD
ATOM     28  H   UNL     1      -7.063 -13.156   8.151  0.00  0.00    +0.000 HD
BRANCH  26  29
ATOM     29  C   UNL     1      -6.079 -13.711   6.315  0.00  0.00    +0.000 C 
ATOM     30  H   UNL     1      -6.031 -14.745   5.954  0.00  0.00    +0.000 HD
ATOM     31  H   UNL     1      -5.192 -13.543   6.939  0.00  0.00    +0.000 HD
BRANCH  29  32
ATOM     32  C   UNL     1      -6.056 -12.747   5.123  0.00  0.00    +0.000 C 
ATOM     33  H   UNL     1      -6.129 -11.711   5.475  0.00  0.00    +0.000 HD
ATOM     34  H   UNL     1      -5.095 -12.818   4.598  0.00  0.00    +0.000 HD
BRANCH  32  35
ATOM     35  C   UNL     1      -7.187 -13.022   4.139  0.00  0.00    +0.000 C 
ATOM     36  H   UNL     1      -6.790 -13.398   3.191  0.00  0.00    +0.000 HD
ATOM     37  H   UNL     1      -7.883 -13.761   4.549  0.00  0.00    +0.000 HD
BRANCH  35  38
ATOM     38  O   UNL     1      -7.907 -11.824   3.882  0.00  0.00    +0.000 OA
ATOM     39  H   UNL     1      -7.367 -11.090   4.222  0.00  0.00    +0.000 HD
ENDBRANCH  35  38
ENDBRANCH  32  35
ENDBRANCH  29  32
ENDBRANCH  26  29
ENDBRANCH  23  26
ENDBRANCH   1  23
TORSDOF 12
ENDMDL
MODEL 5
REMARK VINA RESULT:    -4.191     14.372     16.361
REMARK INTER + INTRA:          -8.123
REMARK INTER:                  -7.204
REMARK INTRA:                  -0.918
REMARK UNBOUND:                -1.236
REMARK  Name = 8193
REMARK  12 active torsions:
REMARK  status: ('A' for Active; 'I' for Inactive)
REMARK    1  A    between atoms: O_1  and  C_12
REMARK    2  A    between atoms: C_2  and  C_3
REMARK    3  A    between atoms: C_2  and  C_4
REMARK    4  A    between atoms: C_3  and  C_5
REMARK    5  A    between atoms: C_4  and  C_6
REMARK    6  A    between atoms: C_5  and  C_7
REMARK    7  A    between atoms: C_6  and  C_8
REMARK    8  A    between atoms: C_7  and  C_9
REMARK    9  A    between atoms: C_8  and  C_10
REMARK   10  A    between atoms: C_9  and  C_11
REMARK   11  A    between atoms: C_10  and  C_12
REMARK   12  A    between atoms: C_11  and  C_13
REMARK                            x       y       z     vdW  Elec       q    Type
REMARK                         _______ _______ _______ _____ _____    ______ ____
ROOT
ATOM      1  C   UNL     1       5.122 -14.228   0.252  0.00  0.00    +0.000 C 
ATOM      2  H   UNL     1       4.493 -13.860  -0.568  0.00  0.00    +0.000 HD
ATOM      3  H   UNL     1       5.844 -14.926  -0.190  0.00  0.00    +0.000 HD
ENDROOT
BRANCH   1   4
ATOM      4  C   UNL     1       4.243 -14.990   1.251  0.00  0.00    +0.000 C 
ATOM      5  H   UNL     1       4.551 -16.043   1.251  0.00  0.00    +0.000 HD
ATOM      6  H   UNL     1       3.206 -14.972   0.892  0.00  0.00    +0.000 HD
BRANCH   4   7
ATOM      7  C   UNL     1       4.264 -14.470   2.693  0.00  0.00    +0.000 C 
ATOM      8  H   UNL     1       4.791 -13.509   2.723  0.00  0.00    +0.000 HD
ATOM      9  H   UNL     1       4.841 -15.168   3.311  0.00  0.00    +0.000 HD
BRANCH   7  10
ATOM     10  C   UNL     1       2.868 -14.301   3.298  0.00  0.00    +0.000 C 
ATOM     11  H   UNL     1       2.962 -14.115   4.375  0.00  0.00    +0.000 HD
ATOM     12  H   UNL     1       2.310 -15.239   3.187  0.00  0.00    +0.000 HD
BRANCH  10  13
ATOM     13  C   UNL     1       2.066 -13.157   2.667  0.00  0.00    +0.000 C 
ATOM     14  H   UNL     1       1.782 -13.438   1.645  0.00  0.00    +0.000 HD
ATOM     15  H   UNL     1       1.133 -13.029   3.229  0.00  0.00    +0.000 HD
BRANCH  13  16
ATOM     16  C   UNL     1       2.822 -11.829   2.630  0.00  0.00    +0.000 C 
ATOM     17  H   UNL     1       3.881 -11.999   2.855  0.00  0.00    +0.000 HD
ATOM     18  H   UNL     1       2.429 -11.158   3.402  0.00  0.00    +0.000 HD
BRANCH  16  19
ATOM     19  C   UNL     1       2.694 -11.157   1.271  0.00  0.00    +0.000 C 
ATOM     20  H   UNL     1       3.011 -10.110   1.321  0.00  0.00    +0.000 HD
ATOM     21  H   UNL     1       3.324 -11.667   0.535  0.00  0.00    +0.000 HD
ATOM     22  H   UNL     1       1.660 -11.187   0.914  0.00  0.00    +0.000 HD
ENDBRANCH  16  19
ENDBRANCH  13  16
ENDBRANCH  10  13
ENDBRANCH   7  10
ENDBRANCH   4   7
ENDBRANCH   1   4
BRANCH   1  23
ATOM     23  C   UNL     1       5.879 -13.056   0.881  0.00  0.00    +0.000 C 
ATOM     24  H   UNL     1       6.727 -13.443   1.460  0.00  0.00    +0.000 HD
ATOM     25  H   UNL     1       5.218 -12.543   1.590  0.00  0.00    +0.000 HD
BRANCH  23  26
ATOM     26  C   UNL     1       6.393 -12.046  -0.149  0.00  0.00    +0.000 C 
ATOM     27  H   UNL     1       6.403 -12.516  -1.140  0.00  0.00    +0.000 HD
ATOM     28  H   UNL     1       5.691 -11.204  -0.204  0.00  0.00    +0.000 HD
BRANCH  26  29
ATOM     29  C   UNL     1       7.792 -11.512   0.172  0.00  0.00    +0.000 C 
ATOM     30  H   UNL     1       8.538 -12.283  -0.053  0.00  0.00    +0.000 HD
ATOM     31  H   UNL     1       7.865 -11.291   1.243  0.00  0.00    +0.000 HD
BRANCH  29  32
ATOM     32  C   UNL     1       8.099 -10.245  -0.635  0.00  0.00    +0.000 C 
ATOM     33  H   UNL     1       7.767 -10.369  -1.673  0.00  0.00    +0.000 HD
ATOM     34  H   UNL     1       7.528  -9.397  -0.238  0.00  0.00    +0.000 HD
BRANCH  32  35
ATOM     35  C   UNL     1       9.584  -9.901  -0.622  0.00  0.00    +0.000 C 
ATOM     36  H   UNL     1      10.053 -10.183  -1.570  0.00  0.00    +0.000 HD
ATOM     37  H   UNL     1       9.728  -8.828  -0.462  0.00  0.00    +0.000 HD
BRANCH  35  38
ATOM     38  O   UNL     1      10.234 -10.602   0.428  0.00  0.00    +0.000 OA
ATOM     39  H   UNL     1      11.188 -10.572   0.242  0.00  0.00    +0.000 HD
ENDBRANCH  35  38
ENDBRANCH  32  35
ENDBRANCH  29  32
ENDBRANCH  26  29
ENDBRANCH  23  26
ENDBRANCH   1  23
TORSDOF 12
ENDMDL
MODEL 6
REMARK VINA RESULT:    -4.185      2.682      4.327
REMARK INTER + INTRA:          -8.113
REMARK INTER:                  -7.528
REMARK INTRA:                  -0.585
REMARK UNBOUND:                -1.236
REMARK  Name = 8193
REMARK  12 active torsions:
REMARK  status: ('A' for Active; 'I' for Inactive)
REMARK    1  A    between atoms: O_1  and  C_12
REMARK    2  A    between atoms: C_2  and  C_3
REMARK    3  A    between atoms: C_2  and  C_4
REMARK    4  A    between atoms: C_3  and  C_5
REMARK    5  A    between atoms: C_4  and  C_6
REMARK    6  A    between atoms: C_5  and  C_7
REMARK    7  A    between atoms: C_6  and  C_8
REMARK    8  A    between atoms: C_7  and  C_9
REMARK    9  A    between atoms: C_8  and  C_10
REMARK   10  A    between atoms: C_9  and  C_11
REMARK   11  A    between atoms: C_10  and  C_12
REMARK   12  A    between atoms: C_11  and  C_13
REMARK                            x       y       z     vdW  Elec       q    Type
REMARK                         _______ _______ _______ _____ _____    ______ ____
ROOT
ATOM      1  C   UNL     1      -0.356  -5.788  16.424  0.00  0.00    +0.000 C 
ATOM      2  H   UNL     1       0.064  -5.193  17.244  0.00  0.00    +0.000 HD
ATOM      3  H   UNL     1      -1.344  -5.367  16.200  0.00  0.00    +0.000 HD
ENDROOT
BRANCH   1   4
ATOM      4  C   UNL     1      -0.527  -7.236  16.896  0.00  0.00    +0.000 C 
ATOM      5  H   UNL     1       0.050  -7.889  16.230  0.00  0.00    +0.000 HD
ATOM      6  H   UNL     1      -1.579  -7.524  16.773  0.00  0.00    +0.000 HD
BRANCH   4   7
ATOM      7  C   UNL     1      -0.115  -7.522  18.345  0.00  0.00    +0.000 C 
ATOM      8  H   UNL     1      -0.895  -7.153  19.022  0.00  0.00    +0.000 HD
ATOM      9  H   UNL     1       0.795  -6.953  18.570  0.00  0.00    +0.000 HD
BRANCH   7  10
ATOM     10  C   UNL     1       0.138  -9.006  18.624  0.00  0.00    +0.000 C 
ATOM     11  H   UNL     1      -0.539  -9.343  19.418  0.00  0.00    +0.000 HD
ATOM     12  H   UNL     1       1.160  -9.132  19.004  0.00  0.00    +0.000 HD
BRANCH  10  13
ATOM     13  C   UNL     1      -0.059  -9.897  17.393  0.00  0.00    +0.000 C 
ATOM     14  H   UNL     1      -0.837  -9.462  16.754  0.00  0.00    +0.000 HD
ATOM     15  H   UNL     1       0.868  -9.897  16.806  0.00  0.00    +0.000 HD
BRANCH  13  16
ATOM     16  C   UNL     1      -0.440 -11.337  17.737  0.00  0.00    +0.000 C 
ATOM     17  H   UNL     1      -0.400 -11.483  18.822  0.00  0.00    +0.000 HD
ATOM     18  H   UNL     1       0.283 -12.029  17.289  0.00  0.00    +0.000 HD
BRANCH  16  19
ATOM     19  C   UNL     1      -1.834 -11.677  17.232  0.00  0.00    +0.000 C 
ATOM     20  H   UNL     1      -2.587 -11.030  17.694  0.00  0.00    +0.000 HD
ATOM     21  H   UNL     1      -1.888 -11.539  16.147  0.00  0.00    +0.000 HD
ATOM     22  H   UNL     1      -2.090 -12.718  17.456  0.00  0.00    +0.000 HD
ENDBRANCH  16  19
ENDBRANCH  13  16
ENDBRANCH  10  13
ENDBRANCH   7  10
ENDBRANCH   4   7
ENDBRANCH   1   4
BRANCH   1  23
ATOM     23  C   UNL     1       0.536  -5.655  15.188  0.00  0.00    +0.000 C 
ATOM     24  H   UNL     1       0.540  -4.609  14.855  0.00  0.00    +0.000 HD
ATOM     25  H   UNL     1       0.105  -6.246  14.370  0.00  0.00    +0.000 HD
BRANCH  23  26
ATOM     26  C   UNL     1       1.979  -6.111  15.430  0.00  0.00    +0.000 C 
ATOM     27  H   UNL     1       2.136  -6.245  16.507  0.00  0.00    +0.000 HD
ATOM     28  H   UNL     1       2.126  -7.092  14.963  0.00  0.00    +0.000 HD
BRANCH  26  29
ATOM     29  C   UNL     1       3.023  -5.133  14.885  0.00  0.00    +0.000 C 
ATOM     30  H   UNL     1       2.817  -4.932  13.827  0.00  0.00    +0.000 HD
ATOM     31  H   UNL     1       4.019  -5.587  14.942  0.00  0.00    +0.000 HD
BRANCH  29  32
ATOM     32  C   UNL     1       3.013  -3.817  15.672  0.00  0.00    +0.000 C 
ATOM     33  H   UNL     1       2.086  -3.731  16.251  0.00  0.00    +0.000 HD
ATOM     34  H   UNL     1       3.827  -3.811  16.407  0.00  0.00    +0.000 HD
BRANCH  32  35
ATOM     35  C   UNL     1       3.150  -2.602  14.762  0.00  0.00    +0.000 C 
ATOM     36  H   UNL     1       3.646  -1.780  15.289  0.00  0.00    +0.000 HD
ATOM     37  H   UNL     1       3.732  -2.852  13.870  0.00  0.00    +0.000 HD
BRANCH  35  38
ATOM     38  O   UNL     1       1.864  -2.160  14.349  0.00  0.00    +0.000 OA
ATOM     39  H   UNL     1       2.002  -1.478  13.669  0.00  0.00    +0.000 HD
ENDBRANCH  35  38
ENDBRANCH  32  35
ENDBRANCH  29  32
ENDBRANCH  26  29
ENDBRANCH  23  26
ENDBRANCH   1  23
TORSDOF 12
ENDMDL
MODEL 7
REMARK VINA RESULT:    -4.168     18.034     21.538
REMARK INTER + INTRA:          -8.084
REMARK INTER:                  -7.438
REMARK INTRA:                  -0.646
REMARK UNBOUND:                -1.236
REMARK  Name = 8193
REMARK  12 active torsions:
REMARK  status: ('A' for Active; 'I' for Inactive)
REMARK    1  A    between atoms: O_1  and  C_12
REMARK    2  A    between atoms: C_2  and  C_3
REMARK    3  A    between atoms: C_2  and  C_4
REMARK    4  A    between atoms: C_3  and  C_5
REMARK    5  A    between atoms: C_4  and  C_6
REMARK    6  A    between atoms: C_5  and  C_7
REMARK    7  A    between atoms: C_6  and  C_8
REMARK    8  A    between atoms: C_7  and  C_9
REMARK    9  A    between atoms: C_8  and  C_10
REMARK   10  A    between atoms: C_9  and  C_11
REMARK   11  A    between atoms: C_10  and  C_12
REMARK   12  A    between atoms: C_11  and  C_13
REMARK                            x       y       z     vdW  Elec       q    Type
REMARK                         _______ _______ _______ _____ _____    ______ ____
ROOT
ATOM      1  C   UNL     1      11.467 -10.490  -2.678  0.00  0.00    +0.000 C 
ATOM      2  H   UNL     1      11.296 -11.131  -1.805  0.00  0.00    +0.000 HD
ATOM      3  H   UNL     1      10.639 -10.674  -3.374  0.00  0.00    +0.000 HD
ENDROOT
BRANCH   1   4
ATOM      4  C   UNL     1      12.782 -10.903  -3.350  0.00  0.00    +0.000 C 
ATOM      5  H   UNL     1      12.548 -11.365  -4.317  0.00  0.00    +0.000 HD
ATOM      6  H   UNL     1      13.257 -11.684  -2.743  0.00  0.00    +0.000 HD
BRANCH   4   7
ATOM      7  C   UNL     1      13.801  -9.780  -3.573  0.00  0.00    +0.000 C 
ATOM      8  H   UNL     1      14.598  -9.861  -2.824  0.00  0.00    +0.000 HD
ATOM      9  H   UNL     1      13.305  -8.816  -3.407  0.00  0.00    +0.000 HD
BRANCH   7  10
ATOM     10  C   UNL     1      14.420  -9.790  -4.974  0.00  0.00    +0.000 C 
ATOM     11  H   UNL     1      14.260 -10.774  -5.430  0.00  0.00    +0.000 HD
ATOM     12  H   UNL     1      15.505  -9.653  -4.889  0.00  0.00    +0.000 HD
BRANCH  10  13
ATOM     13  C   UNL     1      13.844  -8.715  -5.900  0.00  0.00    +0.000 C 
ATOM     14  H   UNL     1      14.364  -7.766  -5.718  0.00  0.00    +0.000 HD
ATOM     15  H   UNL     1      14.055  -8.995  -6.940  0.00  0.00    +0.000 HD
BRANCH  13  16
ATOM     16  C   UNL     1      12.340  -8.503  -5.729  0.00  0.00    +0.000 C 
ATOM     17  H   UNL     1      12.138  -7.453  -5.487  0.00  0.00    +0.000 HD
ATOM     18  H   UNL     1      11.974  -9.106  -4.890  0.00  0.00    +0.000 HD
BRANCH  16  19
ATOM     19  C   UNL     1      11.579  -8.887  -6.990  0.00  0.00    +0.000 C 
ATOM     20  H   UNL     1      10.556  -8.497  -6.964  0.00  0.00    +0.000 HD
ATOM     21  H   UNL     1      12.077  -8.474  -7.873  0.00  0.00    +0.000 HD
ATOM     22  H   UNL     1      11.531  -9.974  -7.102  0.00  0.00    +0.000 HD
ENDBRANCH  16  19
ENDBRANCH  13  16
ENDBRANCH  10  13
ENDBRANCH   7  10
ENDBRANCH   4   7
ENDBRANCH   1   4
BRANCH   1  23
ATOM     23  C   UNL     1      11.442  -9.022  -2.246  0.00  0.00    +0.000 C 
ATOM     24  H   UNL     1      11.102  -8.404  -3.087  0.00  0.00    +0.000 HD
ATOM     25  H   UNL     1      12.464  -8.701  -2.010  0.00  0.00    +0.000 HD
BRANCH  23  26
ATOM     26  C   UNL     1      10.540  -8.763  -1.035  0.00  0.00    +0.000 C 
ATOM     27  H   UNL     1      11.130  -8.285  -0.244  0.00  0.00    +0.000 HD
ATOM     28  H   UNL     1       9.756  -8.050  -1.321  0.00  0.00    +0.000 HD
BRANCH  26  29
ATOM     29  C   UNL     1       9.888 -10.033  -0.483  0.00  0.00    +0.000 C 
ATOM     30  H   UNL     1      10.193 -10.177   0.560  0.00  0.00    +0.000 HD
ATOM     31  H   UNL     1      10.240 -10.904  -1.048  0.00  0.00    +0.000 HD
BRANCH  29  32
ATOM     32  C   UNL     1       8.359  -9.951  -0.567  0.00  0.00    +0.000 C 
ATOM     33  H   UNL     1       7.967  -9.362   0.271  0.00  0.00    +0.000 HD
ATOM     34  H   UNL     1       8.059  -9.414  -1.476  0.00  0.00    +0.000 HD
BRANCH  32  35
ATOM     35  C   UNL     1       7.708 -11.329  -0.560  0.00  0.00    +0.000 C 
ATOM     36  H   UNL     1       7.864 -11.834  -1.518  0.00  0.00    +0.000 HD
ATOM     37  H   UNL     1       8.127 -11.948   0.239  0.00  0.00    +0.000 HD
BRANCH  35  38
ATOM     38  O   UNL     1       6.309 -11.201  -0.341  0.00  0.00    +0.000 OA
ATOM     39  H   UNL     1       6.054 -10.313  -0.643  0.00  0.00    +0.000 HD
ENDBRANCH  35  38
ENDBRANCH  32  35
ENDBRANCH  29  32
ENDBRANCH  26  29
ENDBRANCH  23  26
ENDBRANCH   1  23
TORSDOF 12
ENDMDL
MODEL 8
REMARK VINA RESULT:    -3.878     20.441     23.562
REMARK INTER + INTRA:          -7.608
REMARK INTER:                  -6.877
REMARK INTRA:                  -0.731
REMARK UNBOUND:                -1.236
REMARK  Name = 8193
REMARK  12 active torsions:
REMARK  status: ('A' for Active; 'I' for Inactive)
REMARK    1  A    between atoms: O_1  and  C_12
REMARK    2  A    between atoms: C_2  and  C_3
REMARK    3  A    between atoms: C_2  and  C_4
REMARK    4  A    between atoms: C_3  and  C_5
REMARK    5  A    between atoms: C_4  and  C_6
REMARK    6  A    between atoms: C_5  and  C_7
REMARK    7  A    between atoms: C_6  and  C_8
REMARK    8  A    between atoms: C_7  and  C_9
REMARK    9  A    between atoms: C_8  and  C_10
REMARK   10  A    between atoms: C_9  and  C_11
REMARK   11  A    between atoms: C_10  and  C_12
REMARK   12  A    between atoms: C_11  and  C_13
REMARK                            x       y       z     vdW  Elec       q    Type
REMARK                         _______ _______ _______ _____ _____    ______ ____
ROOT
ATOM      1  C   UNL     1      11.130  -8.798  -6.588  0.00  0.00    +0.000 C 
ATOM      2  H   UNL     1      10.937  -7.719  -6.552  0.00  0.00    +0.000 HD
ATOM      3  H   UNL     1      10.184  -9.298  -6.350  0.00  0.00    +0.000 HD
ENDROOT
BRANCH   1   4
ATOM      4  C   UNL     1      12.166  -9.155  -5.515  0.00  0.00    +0.000 C 
ATOM      5  H   UNL     1      12.045  -8.463  -4.672  0.00  0.00    +0.000 HD
ATOM      6  H   UNL     1      13.169  -8.974  -5.921  0.00  0.00    +0.000 HD
BRANCH   4   7
ATOM      7  C   UNL     1      12.112 -10.593  -4.985  0.00  0.00    +0.000 C 
ATOM      8  H   UNL     1      13.118 -11.027  -5.015  0.00  0.00    +0.000 HD
ATOM      9  H   UNL     1      11.488 -11.193  -5.659  0.00  0.00    +0.000 HD
BRANCH   7  10
ATOM     10  C   UNL     1      11.556 -10.696  -3.562  0.00  0.00    +0.000 C 
ATOM     11  H   UNL     1      12.008 -11.561  -3.062  0.00  0.00    +0.000 HD
ATOM     12  H   UNL     1      10.477 -10.885  -3.609  0.00  0.00    +0.000 HD
BRANCH  10  13
ATOM     13  C   UNL     1      11.815  -9.444  -2.717  0.00  0.00    +0.000 C 
ATOM     14  H   UNL     1      12.847  -9.467  -2.346  0.00  0.00    +0.000 HD
ATOM     15  H   UNL     1      11.732  -8.560  -3.362  0.00  0.00    +0.000 HD
BRANCH  13  16
ATOM     16  C   UNL     1      10.860  -9.298  -1.532  0.00  0.00    +0.000 C 
ATOM     17  H   UNL     1      10.221  -8.419  -1.676  0.00  0.00    +0.000 HD
ATOM     18  H   UNL     1      11.433  -9.136  -0.612  0.00  0.00    +0.000 HD
BRANCH  16  19
ATOM     19  C   UNL     1       9.990 -10.536  -1.367  0.00  0.00    +0.000 C 
ATOM     20  H   UNL     1       9.914 -11.090  -2.309  0.00  0.00    +0.000 HD
ATOM     21  H   UNL     1      10.420 -11.203  -0.614  0.00  0.00    +0.000 HD
ATOM     22  H   UNL     1       8.980 -10.264  -1.045  0.00  0.00    +0.000 HD
ENDBRANCH  16  19
ENDBRANCH  13  16
ENDBRANCH  10  13
ENDBRANCH   7  10
ENDBRANCH   4   7
ENDBRANCH   1   4
BRANCH   1  23
ATOM     23  C   UNL     1      11.563  -9.191  -8.002  0.00  0.00    +0.000 C 
ATOM     24  H   UNL     1      12.620  -9.484  -7.988  0.00  0.00    +0.000 HD
ATOM     25  H   UNL     1      11.485  -8.315  -8.658  0.00  0.00    +0.000 HD
BRANCH  23  26
ATOM     26  C   UNL     1      10.732 -10.335  -8.593  0.00  0.00    +0.000 C 
ATOM     27  H   UNL     1      10.583 -10.155  -9.664  0.00  0.00    +0.000 HD
ATOM     28  H   UNL     1      11.300 -11.270  -8.504  0.00  0.00    +0.000 HD
BRANCH  26  29
ATOM     29  C   UNL     1       9.371 -10.508  -7.914  0.00  0.00    +0.000 C 
ATOM     30  H   UNL     1       8.589 -10.070  -8.546  0.00  0.00    +0.000 HD
ATOM     31  H   UNL     1       9.361  -9.964  -6.962  0.00  0.00    +0.000 HD
BRANCH  29  32
ATOM     32  C   UNL     1       9.062 -11.988  -7.662  0.00  0.00    +0.000 C 
ATOM     33  H   UNL     1       9.946 -12.494  -7.254  0.00  0.00    +0.000 HD
ATOM     34  H   UNL     1       8.282 -12.087  -6.897  0.00  0.00    +0.000 HD
BRANCH  32  35
ATOM     35  C   UNL     1       8.615 -12.707  -8.929  0.00  0.00    +0.000 C 
ATOM     36  H   UNL     1       8.439 -11.990  -9.738  0.00  0.00    +0.000 HD
ATOM     37  H   UNL     1       9.375 -13.425  -9.253  0.00  0.00    +0.000 HD
BRANCH  35  38
ATOM     38  O   UNL     1       7.406 -13.413  -8.684  0.00  0.00    +0.000 OA
ATOM     39  H   UNL     1       6.848 -12.839  -8.133  0.00  0.00    +0.000 HD
ENDBRANCH  35  38
ENDBRANCH  32  35
ENDBRANCH  29  32
ENDBRANCH  26  29
ENDBRANCH  23  26
ENDBRANCH   1  23
TORSDOF 12
ENDMDL
MODEL 9
REMARK VINA RESULT:    -3.877     15.249     17.287
REMARK INTER + INTRA:          -7.606
REMARK INTER:                  -7.078
REMARK INTRA:                  -0.529
REMARK UNBOUND:                -1.236
REMARK  Name = 8193
REMARK  12 active torsions:
REMARK  status: ('A' for Active; 'I' for Inactive)
REMARK    1  A    between atoms: O_1  and  C_12
REMARK    2  A    between atoms: C_2  and  C_3
REMARK    3  A    between atoms: C_2  and  C_4
REMARK    4  A    between atoms: C_3  and  C_5
REMARK    5  A    between atoms: C_4  and  C_6
REMARK    6  A    between atoms: C_5  and  C_7
REMARK    7  A    between atoms: C_6  and  C_8
REMARK    8  A    between atoms: C_7  and  C_9
REMARK    9  A    between atoms: C_8  and  C_10
REMARK   10  A    between atoms: C_9  and  C_11
REMARK   11  A    between atoms: C_10  and  C_12
REMARK   12  A    between atoms: C_11  and  C_13
REMARK                            x       y       z     vdW  Elec       q    Type
REMARK                         _______ _______ _______ _____ _____    ______ ____
ROOT
ATOM      1  C   UNL     1      -9.261 -15.218   7.252  0.00  0.00    +0.000 C 
ATOM      2  H   UNL     1      -9.434 -15.335   6.175  0.00  0.00    +0.000 HD
ATOM      3  H   UNL     1      -9.939 -14.428   7.598  0.00  0.00    +0.000 HD
ENDROOT
BRANCH   1   4
ATOM      4  C   UNL     1      -7.814 -14.765   7.478  0.00  0.00    +0.000 C 
ATOM      5  H   UNL     1      -7.143 -15.512   7.036  0.00  0.00    +0.000 HD
ATOM      6  H   UNL     1      -7.610 -14.767   8.557  0.00  0.00    +0.000 HD
BRANCH   4   7
ATOM      7  C   UNL     1      -7.449 -13.384   6.922  0.00  0.00    +0.000 C 
ATOM      8  H   UNL     1      -7.516 -12.641   7.726  0.00  0.00    +0.000 HD
ATOM      9  H   UNL     1      -8.193 -13.101   6.167  0.00  0.00    +0.000 HD
BRANCH   7  10
ATOM     10  C   UNL     1      -6.053 -13.330   6.296  0.00  0.00    +0.000 C 
ATOM     11  H   UNL     1      -5.301 -13.456   7.084  0.00  0.00    +0.000 HD
ATOM     12  H   UNL     1      -5.891 -12.336   5.860  0.00  0.00    +0.000 HD
BRANCH  10  13
ATOM     13  C   UNL     1      -5.828 -14.398   5.220  0.00  0.00    +0.000 C 
ATOM     14  H   UNL     1      -4.750 -14.549   5.083  0.00  0.00    +0.000 HD
ATOM     15  H   UNL     1      -6.236 -15.351   5.579  0.00  0.00    +0.000 HD
BRANCH  13  16
ATOM     16  C   UNL     1      -6.461 -14.051   3.873  0.00  0.00    +0.000 C 
ATOM     17  H   UNL     1      -7.553 -14.089   3.955  0.00  0.00    +0.000 HD
ATOM     18  H   UNL     1      -6.166 -14.793   3.123  0.00  0.00    +0.000 HD
BRANCH  16  19
ATOM     19  C   UNL     1      -6.037 -12.668   3.401  0.00  0.00    +0.000 C 
ATOM     20  H   UNL     1      -4.948 -12.604   3.304  0.00  0.00    +0.000 HD
ATOM     21  H   UNL     1      -6.478 -12.450   2.423  0.00  0.00    +0.000 HD
ATOM     22  H   UNL     1      -6.366 -11.896   4.104  0.00  0.00    +0.000 HD
ENDBRANCH  16  19
ENDBRANCH  13  16
ENDBRANCH  10  13
ENDBRANCH   7  10
ENDBRANCH   4   7
ENDBRANCH   1   4
BRANCH   1  23
ATOM     23  C   UNL     1      -9.606 -16.525   7.969  0.00  0.00    +0.000 C 
ATOM     24  H   UNL     1      -8.905 -16.677   8.800  0.00  0.00    +0.000 HD
ATOM     25  H   UNL     1      -9.462 -17.363   7.275  0.00  0.00    +0.000 HD
BRANCH  23  26
ATOM     26  C   UNL     1     -11.039 -16.559   8.508  0.00  0.00    +0.000 C 
ATOM     27  H   UNL     1     -11.593 -17.361   8.006  0.00  0.00    +0.000 HD
ATOM     28  H   UNL     1     -11.012 -16.812   9.576  0.00  0.00    +0.000 HD
BRANCH  26  29
ATOM     29  C   UNL     1     -11.787 -15.236   8.325  0.00  0.00    +0.000 C 
ATOM     30  H   UNL     1     -11.627 -14.863   7.306  0.00  0.00    +0.000 HD
ATOM     31  H   UNL     1     -11.382 -14.484   9.013  0.00  0.00    +0.000 HD
BRANCH  29  32
ATOM     32  C   UNL     1     -13.289 -15.409   8.580  0.00  0.00    +0.000 C 
ATOM     33  H   UNL     1     -13.831 -15.449   7.628  0.00  0.00    +0.000 HD
ATOM     34  H   UNL     1     -13.479 -16.370   9.073  0.00  0.00    +0.000 HD
BRANCH  32  35
ATOM     35  C   UNL     1     -13.861 -14.285   9.435  0.00  0.00    +0.000 C 
ATOM     36  H   UNL     1     -13.679 -13.313   8.966  0.00  0.00    +0.000 HD
ATOM     37  H   UNL     1     -14.939 -14.415   9.572  0.00  0.00    +0.000 HD
BRANCH  35  38
ATOM     38  O   UNL     1     -13.244 -14.288  10.716  0.00  0.00    +0.000 OA
ATOM     39  H   UNL     1     -13.852 -14.745  11.322  0.00  0.00    +0.000 HD
ENDBRANCH  35  38
ENDBRANCH  32  35
ENDBRANCH  29  32
ENDBRANCH  26  29
ENDBRANCH  23  26
ENDBRANCH   1  23
TORSDOF 12
ENDMDL
MODEL 10
REMARK VINA RESULT:    -3.830     26.697     28.566
REMARK INTER + INTRA:          -7.529
REMARK INTER:                  -6.292
REMARK INTRA:                  -1.236
REMARK UNBOUND:                -1.236
REMARK  Name = 8193
REMARK  12 active torsions:
REMARK  status: ('A' for Active; 'I' for Inactive)
REMARK    1  A    between atoms: O_1  and  C_12
REMARK    2  A    between atoms: C_2  and  C_3
REMARK    3  A    between atoms: C_2  and  C_4
REMARK    4  A    between atoms: C_3  and  C_5
REMARK    5  A    between atoms: C_4  and  C_6
REMARK    6  A    between atoms: C_5  and  C_7
REMARK    7  A    between atoms: C_6  and  C_8
REMARK    8  A    between atoms: C_7  and  C_9
REMARK    9  A    between atoms: C_8  and  C_10
REMARK   10  A    between atoms: C_9  and  C_11
REMARK   11  A    between atoms: C_10  and  C_12
REMARK   12  A    between atoms: C_11  and  C_13
REMARK                            x       y       z     vdW  Elec       q    Type
REMARK                         _______ _______ _______ _____ _____    ______ ____
ROOT
ATOM      1  C   UNL     1       9.974  13.215  -3.747  0.00  0.00    +0.000 C 
ATOM      2  H   UNL     1       9.361  14.119  -3.648  0.00  0.00    +0.000 HD
ATOM      3  H   UNL     1      10.837  13.343  -3.081  0.00  0.00    +0.000 HD
ENDROOT
BRANCH   1   4
ATOM      4  C   UNL     1      10.472  13.105  -5.192  0.00  0.00    +0.000 C 
ATOM      5  H   UNL     1      11.478  12.667  -5.180  0.00  0.00    +0.000 HD
ATOM      6  H   UNL     1      10.581  14.116  -5.605  0.00  0.00    +0.000 HD
BRANCH   4   7
ATOM      7  C   UNL     1       9.590  12.289  -6.144  0.00  0.00    +0.000 C 
ATOM      8  H   UNL     1       9.033  11.540  -5.568  0.00  0.00    +0.000 HD
ATOM      9  H   UNL     1      10.237  11.738  -6.838  0.00  0.00    +0.000 HD
BRANCH   7  10
ATOM     10  C   UNL     1       8.608  13.145  -6.947  0.00  0.00    +0.000 C 
ATOM     11  H   UNL     1       8.528  12.743  -7.965  0.00  0.00    +0.000 HD
ATOM     12  H   UNL     1       9.008  14.163  -7.040  0.00  0.00    +0.000 HD
BRANCH  10  13
ATOM     13  C   UNL     1       7.207  13.206  -6.328  0.00  0.00    +0.000 C 
ATOM     14  H   UNL     1       6.525  12.583  -6.919  0.00  0.00    +0.000 HD
ATOM     15  H   UNL     1       7.247  12.766  -5.324  0.00  0.00    +0.000 HD
BRANCH  13  16
ATOM     16  C   UNL     1       6.641  14.623  -6.237  0.00  0.00    +0.000 C 
ATOM     17  H   UNL     1       5.651  14.598  -5.766  0.00  0.00    +0.000 HD
ATOM     18  H   UNL     1       6.510  15.035  -7.244  0.00  0.00    +0.000 HD
BRANCH  16  19
ATOM     19  C   UNL     1       7.558  15.537  -5.439  0.00  0.00    +0.000 C 
ATOM     20  H   UNL     1       8.606  15.243  -5.560  0.00  0.00    +0.000 HD
ATOM     21  H   UNL     1       7.454  16.571  -5.782  0.00  0.00    +0.000 HD
ATOM     22  H   UNL     1       7.312  15.505  -4.373  0.00  0.00    +0.000 HD
ENDBRANCH  16  19
ENDBRANCH  13  16
ENDBRANCH  10  13
ENDBRANCH   7  10
ENDBRANCH   4   7
ENDBRANCH   1   4
BRANCH   1  23
ATOM     23  C   UNL     1       9.165  11.999  -3.290  0.00  0.00    +0.000 C 
ATOM     24  H   UNL     1       9.855  11.200  -2.987  0.00  0.00    +0.000 HD
ATOM     25  H   UNL     1       8.587  11.613  -4.139  0.00  0.00    +0.000 HD
BRANCH  23  26
ATOM     26  C   UNL     1       8.212  12.306  -2.131  0.00  0.00    +0.000 C 
ATOM     27  H   UNL     1       7.808  11.365  -1.739  0.00  0.00    +0.000 HD
ATOM     28  H   UNL     1       8.781  12.771  -1.316  0.00  0.00    +0.000 HD
BRANCH  26  29
ATOM     29  C   UNL     1       7.055  13.228  -2.526  0.00  0.00    +0.000 C 
ATOM     30  H   UNL     1       6.480  12.766  -3.337  0.00  0.00    +0.000 HD
ATOM     31  H   UNL     1       7.453  14.175  -2.908  0.00  0.00    +0.000 HD
BRANCH  29  32
ATOM     32  C   UNL     1       6.134  13.502  -1.332  0.00  0.00    +0.000 C 
ATOM     33  H   UNL     1       6.354  14.489  -0.905  0.00  0.00    +0.000 HD
ATOM     34  H   UNL     1       5.089  13.546  -1.663  0.00  0.00    +0.000 HD
BRANCH  32  35
ATOM     35  C   UNL     1       6.272  12.445  -0.243  0.00  0.00    +0.000 C 
ATOM     36  H   UNL     1       6.979  11.668  -0.548  0.00  0.00    +0.000 HD
ATOM     37  H   UNL     1       6.623  12.896   0.690  0.00  0.00    +0.000 HD
BRANCH  35  38
ATOM     38  O   UNL     1       5.011  11.835   0.001  0.00  0.00    +0.000 OA
ATOM     39  H   UNL     1       5.181  11.030   0.519  0.00  0.00    +0.000 HD
ENDBRANCH  35  38
ENDBRANCH  32  35
ENDBRANCH  29  32
ENDBRANCH  26  29
ENDBRANCH  23  26
ENDBRANCH   1  23
TORSDOF 12
ENDMDL
