MODEL 1
REMARK VINA RESULT:    -4.041      0.000      0.000
REMARK INTER + INTRA:          -5.309
REMARK INTER:                  -5.254
REMARK INTRA:                  -0.056
REMARK UNBOUND:                -0.088
REMARK  Name = 8103
REMARK  6 active torsions:
REMARK  status: ('A' for Active; 'I' for Inactive)
REMARK    1  A    between atoms: O_1  and  C_6
REMARK    2  A    between atoms: C_2  and  C_3
REMARK    3  A    between atoms: C_2  and  C_4
REMARK    4  A    between atoms: C_3  and  C_5
REMARK    5  A    between atoms: C_4  and  C_6
REMARK    6  A    between atoms: C_5  and  C_7
REMARK                            x       y       z     vdW  Elec       q    Type
REMARK                         _______ _______ _______ _____ _____    ______ ____
ROOT
ATOM      1  C   UNL     1       0.930  -4.094  15.505  0.00  0.00    +0.000 C 
ATOM      2  H   UNL     1       0.357  -3.564  16.275  0.00  0.00    +0.000 HD
ATOM      3  H   UNL     1       0.574  -3.724  14.536  0.00  0.00    +0.000 HD
ENDROOT
BRANCH   1   4
ATOM      4  C   UNL     1       0.632  -5.593  15.608  0.00  0.00    +0.000 C 
ATOM      5  H   UNL     1       0.442  -5.992  14.605  0.00  0.00    +0.000 HD
ATOM      6  H   UNL     1       1.524  -6.106  15.990  0.00  0.00    +0.000 HD
BRANCH   4   7
ATOM      7  C   UNL     1      -0.560  -5.914  16.510  0.00  0.00    +0.000 C 
ATOM      8  H   UNL     1      -0.728  -5.090  17.213  0.00  0.00    +0.000 HD
ATOM      9  H   UNL     1      -1.468  -6.014  15.904  0.00  0.00    +0.000 HD
BRANCH   7  10
ATOM     10  C   UNL     1      -0.332  -7.198  17.294  0.00  0.00    +0.000 C 
ATOM     11  H   UNL     1      -1.129  -7.918  17.082  0.00  0.00    +0.000 HD
ATOM     12  H   UNL     1       0.623  -7.659  17.022  0.00  0.00    +0.000 HD
ATOM     13  H   UNL     1      -0.326  -7.004  18.371  0.00  0.00    +0.000 HD
ENDBRANCH   7  10
ENDBRANCH   4   7
ENDBRANCH   1   4
BRANCH   1  14
ATOM     14  C   UNL     1       2.412  -3.757  15.656  0.00  0.00    +0.000 C 
ATOM     15  H   UNL     1       3.020  -4.654  15.484  0.00  0.00    +0.000 HD
ATOM     16  H   UNL     1       2.626  -3.442  16.685  0.00  0.00    +0.000 HD
BRANCH  14  17
ATOM     17  C   UNL     1       2.836  -2.658  14.693  0.00  0.00    +0.000 C 
ATOM     18  H   UNL     1       3.585  -1.997  15.141  0.00  0.00    +0.000 HD
ATOM     19  H   UNL     1       3.252  -3.080  13.772  0.00  0.00    +0.000 HD
BRANCH  17  20
ATOM     20  O   UNL     1       1.696  -1.882  14.349  0.00  0.00    +0.000 OA
ATOM     21  H   UNL     1       1.999  -1.145  13.794  0.00  0.00    +0.000 HD
ENDBRANCH  17  20
ENDBRANCH  14  17
ENDBRANCH   1  14
TORSDOF 6
ENDMDL
MODEL 2
REMARK VINA RESULT:    -3.569     20.340     21.305
REMARK INTER + INTRA:          -4.701
REMARK INTER:                  -4.630
REMARK INTRA:                  -0.070
REMARK UNBOUND:                -0.088
REMARK  Name = 8103
REMARK  6 active torsions:
REMARK  status: ('A' for Active; 'I' for Inactive)
REMARK    1  A    between atoms: O_1  and  C_6
REMARK    2  A    between atoms: C_2  and  C_3
REMARK    3  A    between atoms: C_2  and  C_4
REMARK    4  A    between atoms: C_3  and  C_5
REMARK    5  A    between atoms: C_4  and  C_6
REMARK    6  A    between atoms: C_5  and  C_7
REMARK                            x       y       z     vdW  Elec       q    Type
REMARK                         _______ _______ _______ _____ _____    ______ ____
ROOT
ATOM      1  C   UNL     1      11.426  -9.315  -2.132  0.00  0.00    +0.000 C 
ATOM      2  H   UNL     1      12.311  -9.297  -1.483  0.00  0.00    +0.000 HD
ATOM      3  H   UNL     1      10.938  -8.339  -2.027  0.00  0.00    +0.000 HD
ENDROOT
BRANCH   1   4
ATOM      4  C   UNL     1      10.472 -10.407  -1.639  0.00  0.00    +0.000 C 
ATOM      5  H   UNL     1       9.708 -10.588  -2.404  0.00  0.00    +0.000 HD
ATOM      6  H   UNL     1      11.033 -11.342  -1.523  0.00  0.00    +0.000 HD
BRANCH   4   7
ATOM      7  C   UNL     1       9.786 -10.063  -0.316  0.00  0.00    +0.000 C 
ATOM      8  H   UNL     1       9.541 -10.983   0.226  0.00  0.00    +0.000 HD
ATOM      9  H   UNL     1      10.468  -9.483   0.316  0.00  0.00    +0.000 HD
BRANCH   7  10
ATOM     10  C   UNL     1       8.510  -9.266  -0.544  0.00  0.00    +0.000 C 
ATOM     11  H   UNL     1       7.979  -9.644  -1.423  0.00  0.00    +0.000 HD
ATOM     12  H   UNL     1       7.840  -9.344   0.317  0.00  0.00    +0.000 HD
ATOM     13  H   UNL     1       8.733  -8.207  -0.712  0.00  0.00    +0.000 HD
ENDBRANCH   7  10
ENDBRANCH   4   7
ENDBRANCH   1   4
BRANCH   1  14
ATOM     14  C   UNL     1      11.867  -9.502  -3.582  0.00  0.00    +0.000 C 
ATOM     15  H   UNL     1      11.943  -8.528  -4.080  0.00  0.00    +0.000 HD
ATOM     16  H   UNL     1      11.107 -10.065  -4.140  0.00  0.00    +0.000 HD
BRANCH  14  17
ATOM     17  C   UNL     1      13.201 -10.230  -3.671  0.00  0.00    +0.000 C 
ATOM     18  H   UNL     1      13.111 -11.276  -3.363  0.00  0.00    +0.000 HD
ATOM     19  H   UNL     1      13.596 -10.202  -4.692  0.00  0.00    +0.000 HD
BRANCH  17  20
ATOM     20  O   UNL     1      14.135  -9.584  -2.817  0.00  0.00    +0.000 OA
ATOM     21  H   UNL     1      14.184 -10.098  -1.994  0.00  0.00    +0.000 HD
ENDBRANCH  17  20
ENDBRANCH  14  17
ENDBRANCH   1  14
TORSDOF 6
ENDMDL
MODEL 3
REMARK VINA RESULT:    -3.554     18.854     20.044
REMARK INTER + INTRA:          -4.681
REMARK INTER:                  -4.609
REMARK INTRA:                  -0.072
REMARK UNBOUND:                -0.088
REMARK  Name = 8103
REMARK  6 active torsions:
REMARK  status: ('A' for Active; 'I' for Inactive)
REMARK    1  A    between atoms: O_1  and  C_6
REMARK    2  A    between atoms: C_2  and  C_3
REMARK    3  A    between atoms: C_2  and  C_4
REMARK    4  A    between atoms: C_3  and  C_5
REMARK    5  A    between atoms: C_4  and  C_6
REMARK    6  A    between atoms: C_5  and  C_7
REMARK                            x       y       z     vdW  Elec       q    Type
REMARK                         _______ _______ _______ _____ _____    ______ ____
ROOT
ATOM      1  C   UNL     1       9.887  -9.322  -0.220  0.00  0.00    +0.000 C 
ATOM      2  H   UNL     1       9.890  -8.529   0.538  0.00  0.00    +0.000 HD
ATOM      3  H   UNL     1      10.342 -10.205   0.245  0.00  0.00    +0.000 HD
ENDROOT
BRANCH   1   4
ATOM      4  C   UNL     1      10.749  -8.880  -1.406  0.00  0.00    +0.000 C 
ATOM      5  H   UNL     1      10.173  -8.190  -2.033  0.00  0.00    +0.000 HD
ATOM      6  H   UNL     1      11.612  -8.319  -1.026  0.00  0.00    +0.000 HD
BRANCH   4   7
ATOM      7  C   UNL     1      11.243 -10.045  -2.265  0.00  0.00    +0.000 C 
ATOM      8  H   UNL     1      11.325 -10.950  -1.652  0.00  0.00    +0.000 HD
ATOM      9  H   UNL     1      10.518 -10.254  -3.059  0.00  0.00    +0.000 HD
BRANCH   7  10
ATOM     10  C   UNL     1      12.598  -9.740  -2.885  0.00  0.00    +0.000 C 
ATOM     11  H   UNL     1      12.501  -9.626  -3.969  0.00  0.00    +0.000 HD
ATOM     12  H   UNL     1      13.015  -8.811  -2.482  0.00  0.00    +0.000 HD
ATOM     13  H   UNL     1      13.310 -10.549  -2.691  0.00  0.00    +0.000 HD
ENDBRANCH   7  10
ENDBRANCH   4   7
ENDBRANCH   1   4
BRANCH   1  14
ATOM     14  C   UNL     1       8.445  -9.646  -0.605  0.00  0.00    +0.000 C 
ATOM     15  H   UNL     1       8.286  -9.442  -1.671  0.00  0.00    +0.000 HD
ATOM     16  H   UNL     1       7.751  -8.988  -0.067  0.00  0.00    +0.000 HD
BRANCH  14  17
ATOM     17  C   UNL     1       8.098 -11.097  -0.304  0.00  0.00    +0.000 C 
ATOM     18  H   UNL     1       7.949 -11.675  -1.222  0.00  0.00    +0.000 HD
ATOM     19  H   UNL     1       8.889 -11.577   0.282  0.00  0.00    +0.000 HD
BRANCH  17  20
ATOM     20  O   UNL     1       6.899 -11.136   0.456  0.00  0.00    +0.000 OA
ATOM     21  H   UNL     1       7.141 -11.046   1.393  0.00  0.00    +0.000 HD
ENDBRANCH  17  20
ENDBRANCH  14  17
ENDBRANCH   1  14
TORSDOF 6
ENDMDL
MODEL 4
REMARK VINA RESULT:    -3.550     15.136     15.566
REMARK INTER + INTRA:          -4.675
REMARK INTER:                  -4.594
REMARK INTRA:                  -0.081
REMARK UNBOUND:                -0.088
REMARK  Name = 8103
REMARK  6 active torsions:
REMARK  status: ('A' for Active; 'I' for Inactive)
REMARK    1  A    between atoms: O_1  and  C_6
REMARK    2  A    between atoms: C_2  and  C_3
REMARK    3  A    between atoms: C_2  and  C_4
REMARK    4  A    between atoms: C_3  and  C_5
REMARK    5  A    between atoms: C_4  and  C_6
REMARK    6  A    between atoms: C_5  and  C_7
REMARK                            x       y       z     vdW  Elec       q    Type
REMARK                         _______ _______ _______ _____ _____    ______ ____
ROOT
ATOM      1  C   UNL     1      -8.842   6.802  19.655  0.00  0.00    +0.000 C 
ATOM      2  H   UNL     1      -9.828   6.399  19.391  0.00  0.00    +0.000 HD
ATOM      3  H   UNL     1      -8.099   6.174  19.149  0.00  0.00    +0.000 HD
ENDROOT
BRANCH   1   4
ATOM      4  C   UNL     1      -8.647   6.685  21.170  0.00  0.00    +0.000 C 
ATOM      5  H   UNL     1      -7.839   7.357  21.481  0.00  0.00    +0.000 HD
ATOM      6  H   UNL     1      -9.559   7.031  21.672  0.00  0.00    +0.000 HD
BRANCH   4   7
ATOM      7  C   UNL     1      -8.325   5.264  21.633  0.00  0.00    +0.000 C 
ATOM      8  H   UNL     1      -8.099   5.265  22.706  0.00  0.00    +0.000 HD
ATOM      9  H   UNL     1      -9.198   4.618  21.485  0.00  0.00    +0.000 HD
BRANCH   7  10
ATOM     10  C   UNL     1      -7.138   4.689  20.875  0.00  0.00    +0.000 C 
ATOM     11  H   UNL     1      -6.300   5.393  20.894  0.00  0.00    +0.000 HD
ATOM     12  H   UNL     1      -6.803   3.749  21.325  0.00  0.00    +0.000 HD
ATOM     13  H   UNL     1      -7.396   4.497  19.828  0.00  0.00    +0.000 HD
ENDBRANCH   7  10
ENDBRANCH   4   7
ENDBRANCH   1   4
BRANCH   1  14
ATOM     14  C   UNL     1      -8.726   8.233  19.136  0.00  0.00    +0.000 C 
ATOM     15  H   UNL     1      -7.675   8.548  19.136  0.00  0.00    +0.000 HD
ATOM     16  H   UNL     1      -9.246   8.925  19.811  0.00  0.00    +0.000 HD
BRANCH  14  17
ATOM     17  C   UNL     1      -9.302   8.368  17.734  0.00  0.00    +0.000 C 
ATOM     18  H   UNL     1     -10.021   9.191  17.670  0.00  0.00    +0.000 HD
ATOM     19  H   UNL     1      -8.510   8.542  16.998  0.00  0.00    +0.000 HD
BRANCH  17  20
ATOM     20  O   UNL     1      -9.966   7.159  17.391  0.00  0.00    +0.000 OA
ATOM     21  H   UNL     1     -10.812   7.396  16.977  0.00  0.00    +0.000 HD
ENDBRANCH  17  20
ENDBRANCH  14  17
ENDBRANCH   1  14
TORSDOF 6
ENDMDL
MODEL 5
REMARK VINA RESULT:    -3.549     15.902     17.048
REMARK INTER + INTRA:          -4.675
REMARK INTER:                  -4.538
REMARK INTRA:                  -0.137
REMARK UNBOUND:                -0.088
REMARK  Name = 8103
REMARK  6 active torsions:
REMARK  status: ('A' for Active; 'I' for Inactive)
REMARK    1  A    between atoms: O_1  and  C_6
REMARK    2  A    between atoms: C_2  and  C_3
REMARK    3  A    between atoms: C_2  and  C_4
REMARK    4  A    between atoms: C_3  and  C_5
REMARK    5  A    between atoms: C_4  and  C_6
REMARK    6  A    between atoms: C_5  and  C_7
REMARK                            x       y       z     vdW  Elec       q    Type
REMARK                         _______ _______ _______ _____ _____    ______ ____
ROOT
ATOM      1  C   UNL     1       6.178  -3.449  -1.169  0.00  0.00    +0.000 C 
ATOM      2  H   UNL     1       6.705  -4.194  -1.778  0.00  0.00    +0.000 HD
ATOM      3  H   UNL     1       5.808  -3.973  -0.280  0.00  0.00    +0.000 HD
ENDROOT
BRANCH   1   4
ATOM      4  C   UNL     1       4.986  -2.910  -1.965  0.00  0.00    +0.000 C 
ATOM      5  H   UNL     1       5.314  -2.061  -2.575  0.00  0.00    +0.000 HD
ATOM      6  H   UNL     1       4.644  -3.687  -2.660  0.00  0.00    +0.000 HD
BRANCH   4   7
ATOM      7  C   UNL     1       3.816  -2.472  -1.083  0.00  0.00    +0.000 C 
ATOM      8  H   UNL     1       3.904  -1.403  -0.853  0.00  0.00    +0.000 HD
ATOM      9  H   UNL     1       2.872  -2.611  -1.622  0.00  0.00    +0.000 HD
BRANCH   7  10
ATOM     10  C   UNL     1       3.776  -3.259   0.218  0.00  0.00    +0.000 C 
ATOM     11  H   UNL     1       4.105  -2.631   1.051  0.00  0.00    +0.000 HD
ATOM     12  H   UNL     1       2.761  -3.607   0.435  0.00  0.00    +0.000 HD
ATOM     13  H   UNL     1       4.435  -4.132   0.168  0.00  0.00    +0.000 HD
ENDBRANCH   7  10
ENDBRANCH   4   7
ENDBRANCH   1   4
BRANCH   1  14
ATOM     14  C   UNL     1       7.162  -2.363  -0.738  0.00  0.00    +0.000 C 
ATOM     15  H   UNL     1       6.627  -1.421  -0.562  0.00  0.00    +0.000 HD
ATOM     16  H   UNL     1       7.876  -2.156  -1.546  0.00  0.00    +0.000 HD
BRANCH  14  17
ATOM     17  C   UNL     1       7.922  -2.764   0.518  0.00  0.00    +0.000 C 
ATOM     18  H   UNL     1       8.942  -3.087   0.286  0.00  0.00    +0.000 HD
ATOM     19  H   UNL     1       7.975  -1.932   1.228  0.00  0.00    +0.000 HD
BRANCH  17  20
ATOM     20  O   UNL     1       7.239  -3.840   1.146  0.00  0.00    +0.000 OA
ATOM     21  H   UNL     1       7.908  -4.420   1.546  0.00  0.00    +0.000 HD
ENDBRANCH  17  20
ENDBRANCH  14  17
ENDBRANCH   1  14
TORSDOF 6
ENDMDL
MODEL 6
REMARK VINA RESULT:    -3.540      2.597      4.503
REMARK INTER + INTRA:          -4.663
REMARK INTER:                  -4.586
REMARK INTRA:                  -0.077
REMARK UNBOUND:                -0.088
REMARK  Name = 8103
REMARK  6 active torsions:
REMARK  status: ('A' for Active; 'I' for Inactive)
REMARK    1  A    between atoms: O_1  and  C_6
REMARK    2  A    between atoms: C_2  and  C_3
REMARK    3  A    between atoms: C_2  and  C_4
REMARK    4  A    between atoms: C_3  and  C_5
REMARK    5  A    between atoms: C_4  and  C_6
REMARK    6  A    between atoms: C_5  and  C_7
REMARK                            x       y       z     vdW  Elec       q    Type
REMARK                         _______ _______ _______ _____ _____    ______ ____
ROOT
ATOM      1  C   UNL     1       0.923  -5.504  14.802  0.00  0.00    +0.000 C 
ATOM      2  H   UNL     1       1.180  -6.564  14.683  0.00  0.00    +0.000 HD
ATOM      3  H   UNL     1       0.111  -5.295  14.095  0.00  0.00    +0.000 HD
ENDROOT
BRANCH   1   4
ATOM      4  C   UNL     1       2.141  -4.653  14.430  0.00  0.00    +0.000 C 
ATOM      5  H   UNL     1       3.055  -5.211  14.666  0.00  0.00    +0.000 HD
ATOM      6  H   UNL     1       2.141  -4.490  13.345  0.00  0.00    +0.000 HD
BRANCH   4   7
ATOM      7  C   UNL     1       2.179  -3.302  15.145  0.00  0.00    +0.000 C 
ATOM      8  H   UNL     1       1.330  -2.687  14.823  0.00  0.00    +0.000 HD
ATOM      9  H   UNL     1       2.081  -3.451  16.226  0.00  0.00    +0.000 HD
BRANCH   7  10
ATOM     10  C   UNL     1       3.472  -2.556  14.852  0.00  0.00    +0.000 C 
ATOM     11  H   UNL     1       4.326  -3.103  15.264  0.00  0.00    +0.000 HD
ATOM     12  H   UNL     1       3.627  -2.447  13.774  0.00  0.00    +0.000 HD
ATOM     13  H   UNL     1       3.459  -1.557  15.300  0.00  0.00    +0.000 HD
ENDBRANCH   7  10
ENDBRANCH   4   7
ENDBRANCH   1   4
BRANCH   1  14
ATOM     14  C   UNL     1       0.424  -5.262  16.225  0.00  0.00    +0.000 C 
ATOM     15  H   UNL     1       0.161  -4.205  16.356  0.00  0.00    +0.000 HD
ATOM     16  H   UNL     1       1.225  -5.464  16.948  0.00  0.00    +0.000 HD
BRANCH  14  17
ATOM     17  C   UNL     1      -0.780  -6.133  16.551  0.00  0.00    +0.000 C 
ATOM     18  H   UNL     1      -1.626  -5.536  16.905  0.00  0.00    +0.000 HD
ATOM     19  H   UNL     1      -1.102  -6.704  15.673  0.00  0.00    +0.000 HD
BRANCH  17  20
ATOM     20  O   UNL     1      -0.419  -7.055  17.571  0.00  0.00    +0.000 OA
ATOM     21  H   UNL     1      -1.240  -7.416  17.945  0.00  0.00    +0.000 HD
ENDBRANCH  17  20
ENDBRANCH  14  17
ENDBRANCH   1  14
TORSDOF 6
ENDMDL
MODEL 7
REMARK VINA RESULT:    -3.361      3.602      4.266
REMARK INTER + INTRA:          -4.431
REMARK INTER:                  -4.349
REMARK INTRA:                  -0.082
REMARK UNBOUND:                -0.088
REMARK  Name = 8103
REMARK  6 active torsions:
REMARK  status: ('A' for Active; 'I' for Inactive)
REMARK    1  A    between atoms: O_1  and  C_6
REMARK    2  A    between atoms: C_2  and  C_3
REMARK    3  A    between atoms: C_2  and  C_4
REMARK    4  A    between atoms: C_3  and  C_5
REMARK    5  A    between atoms: C_4  and  C_6
REMARK    6  A    between atoms: C_5  and  C_7
REMARK                            x       y       z     vdW  Elec       q    Type
REMARK                         _______ _______ _______ _____ _____    ______ ____
ROOT
ATOM      1  C   UNL     1       1.899  -6.159  14.195  0.00  0.00    +0.000 C 
ATOM      2  H   UNL     1       1.261  -6.203  13.304  0.00  0.00    +0.000 HD
ATOM      3  H   UNL     1       1.317  -6.584  15.022  0.00  0.00    +0.000 HD
ENDROOT
BRANCH   1   4
ATOM      4  C   UNL     1       2.215  -4.694  14.508  0.00  0.00    +0.000 C 
ATOM      5  H   UNL     1       3.222  -4.626  14.936  0.00  0.00    +0.000 HD
ATOM      6  H   UNL     1       2.231  -4.127  13.569  0.00  0.00    +0.000 HD
BRANCH   4   7
ATOM      7  C   UNL     1       1.216  -4.049  15.470  0.00  0.00    +0.000 C 
ATOM      8  H   UNL     1       1.752  -3.471  16.231  0.00  0.00    +0.000 HD
ATOM      9  H   UNL     1       0.573  -3.349  14.923  0.00  0.00    +0.000 HD
BRANCH   7  10
ATOM     10  C   UNL     1       0.352  -5.096  16.157  0.00  0.00    +0.000 C 
ATOM     11  H   UNL     1      -0.155  -4.660  17.023  0.00  0.00    +0.000 HD
ATOM     12  H   UNL     1      -0.412  -5.484  15.475  0.00  0.00    +0.000 HD
ATOM     13  H   UNL     1       0.960  -5.938  16.506  0.00  0.00    +0.000 HD
ENDBRANCH   7  10
ENDBRANCH   4   7
ENDBRANCH   1   4
BRANCH   1  14
ATOM     14  C   UNL     1       3.144  -7.014  13.968  0.00  0.00    +0.000 C 
ATOM     15  H   UNL     1       3.533  -7.375  14.928  0.00  0.00    +0.000 HD
ATOM     16  H   UNL     1       3.946  -6.406  13.529  0.00  0.00    +0.000 HD
BRANCH  14  17
ATOM     17  C   UNL     1       2.852  -8.197  13.056  0.00  0.00    +0.000 C 
ATOM     18  H   UNL     1       2.419  -9.035  13.610  0.00  0.00    +0.000 HD
ATOM     19  H   UNL     1       2.159  -7.915  12.256  0.00  0.00    +0.000 HD
BRANCH  17  20
ATOM     20  O   UNL     1       4.066  -8.628  12.458  0.00  0.00    +0.000 OA
ATOM     21  H   UNL     1       4.093  -8.269  11.556  0.00  0.00    +0.000 HD
ENDBRANCH  17  20
ENDBRANCH  14  17
ENDBRANCH   1  14
TORSDOF 6
ENDMDL
MODEL 8
REMARK VINA RESULT:    -3.352     22.442     24.228
REMARK INTER + INTRA:          -4.419
REMARK INTER:                  -4.350
REMARK INTRA:                  -0.069
REMARK UNBOUND:                -0.088
REMARK  Name = 8103
REMARK  6 active torsions:
REMARK  status: ('A' for Active; 'I' for Inactive)
REMARK    1  A    between atoms: O_1  and  C_6
REMARK    2  A    between atoms: C_2  and  C_3
REMARK    3  A    between atoms: C_2  and  C_4
REMARK    4  A    between atoms: C_3  and  C_5
REMARK    5  A    between atoms: C_4  and  C_6
REMARK    6  A    between atoms: C_5  and  C_7
REMARK                            x       y       z     vdW  Elec       q    Type
REMARK                         _______ _______ _______ _____ _____    ______ ____
ROOT
ATOM      1  C   UNL     1       6.909  12.388  -0.484  0.00  0.00    +0.000 C 
ATOM      2  H   UNL     1       5.855  12.241  -0.750  0.00  0.00    +0.000 HD
ATOM      3  H   UNL     1       7.287  11.416  -0.144  0.00  0.00    +0.000 HD
ENDROOT
BRANCH   1   4
ATOM      4  C   UNL     1       6.996  13.390   0.671  0.00  0.00    +0.000 C 
ATOM      5  H   UNL     1       8.040  13.698   0.802  0.00  0.00    +0.000 HD
ATOM      6  H   UNL     1       6.431  14.291   0.400  0.00  0.00    +0.000 HD
BRANCH   4   7
ATOM      7  C   UNL     1       6.464  12.839   1.994  0.00  0.00    +0.000 C 
ATOM      8  H   UNL     1       7.302  12.593   2.658  0.00  0.00    +0.000 HD
ATOM      9  H   UNL     1       5.862  13.603   2.500  0.00  0.00    +0.000 HD
BRANCH   7  10
ATOM     10  C   UNL     1       5.619  11.593   1.777  0.00  0.00    +0.000 C 
ATOM     11  H   UNL     1       5.159  11.278   2.718  0.00  0.00    +0.000 HD
ATOM     12  H   UNL     1       4.819  11.783   1.055  0.00  0.00    +0.000 HD
ATOM     13  H   UNL     1       6.230  10.765   1.403  0.00  0.00    +0.000 HD
ENDBRANCH   7  10
ENDBRANCH   4   7
ENDBRANCH   1   4
BRANCH   1  14
ATOM     14  C   UNL     1       7.687  12.821  -1.725  0.00  0.00    +0.000 C 
ATOM     15  H   UNL     1       8.249  13.740  -1.514  0.00  0.00    +0.000 HD
ATOM     16  H   UNL     1       6.995  13.073  -2.538  0.00  0.00    +0.000 HD
BRANCH  14  17
ATOM     17  C   UNL     1       8.643  11.733  -2.194  0.00  0.00    +0.000 C 
ATOM     18  H   UNL     1       9.682  11.981  -1.960  0.00  0.00    +0.000 HD
ATOM     19  H   UNL     1       8.402  10.771  -1.729  0.00  0.00    +0.000 HD
BRANCH  17  20
ATOM     20  O   UNL     1       8.518  11.588  -3.602  0.00  0.00    +0.000 OA
ATOM     21  H   UNL     1       9.409  11.649  -3.984  0.00  0.00    +0.000 HD
ENDBRANCH  17  20
ENDBRANCH  14  17
ENDBRANCH   1  14
TORSDOF 6
ENDMDL
MODEL 9
REMARK VINA RESULT:    -3.239     15.920     17.617
REMARK INTER + INTRA:          -4.274
REMARK INTER:                  -4.118
REMARK INTRA:                  -0.155
REMARK UNBOUND:                -0.088
REMARK  Name = 8103
REMARK  6 active torsions:
REMARK  status: ('A' for Active; 'I' for Inactive)
REMARK    1  A    between atoms: O_1  and  C_6
REMARK    2  A    between atoms: C_2  and  C_3
REMARK    3  A    between atoms: C_2  and  C_4
REMARK    4  A    between atoms: C_3  and  C_5
REMARK    5  A    between atoms: C_4  and  C_6
REMARK    6  A    between atoms: C_5  and  C_7
REMARK                            x       y       z     vdW  Elec       q    Type
REMARK                         _______ _______ _______ _____ _____    ______ ____
ROOT
ATOM      1  C   UNL     1       5.556  -3.501  -1.689  0.00  0.00    +0.000 C 
ATOM      2  H   UNL     1       5.597  -4.473  -1.181  0.00  0.00    +0.000 HD
ATOM      3  H   UNL     1       5.205  -3.694  -2.710  0.00  0.00    +0.000 HD
ENDROOT
BRANCH   1   4
ATOM      4  C   UNL     1       6.968  -2.911  -1.748  0.00  0.00    +0.000 C 
ATOM      5  H   UNL     1       7.699  -3.728  -1.736  0.00  0.00    +0.000 HD
ATOM      6  H   UNL     1       7.093  -2.387  -2.704  0.00  0.00    +0.000 HD
BRANCH   4   7
ATOM      7  C   UNL     1       7.272  -1.948  -0.600  0.00  0.00    +0.000 C 
ATOM      8  H   UNL     1       6.584  -1.096  -0.637  0.00  0.00    +0.000 HD
ATOM      9  H   UNL     1       7.114  -2.453   0.360  0.00  0.00    +0.000 HD
BRANCH   7  10
ATOM     10  C   UNL     1       8.703  -1.436  -0.671  0.00  0.00    +0.000 C 
ATOM     11  H   UNL     1       9.053  -1.434  -1.708  0.00  0.00    +0.000 HD
ATOM     12  H   UNL     1       8.772  -0.413  -0.287  0.00  0.00    +0.000 HD
ATOM     13  H   UNL     1       9.377  -2.070  -0.085  0.00  0.00    +0.000 HD
ENDBRANCH   7  10
ENDBRANCH   4   7
ENDBRANCH   1   4
BRANCH   1  14
ATOM     14  C   UNL     1       4.550  -2.600  -0.975  0.00  0.00    +0.000 C 
ATOM     15  H   UNL     1       3.788  -2.252  -1.684  0.00  0.00    +0.000 HD
ATOM     16  H   UNL     1       5.048  -1.696  -0.602  0.00  0.00    +0.000 HD
BRANCH  14  17
ATOM     17  C   UNL     1       3.879  -3.321   0.185  0.00  0.00    +0.000 C 
ATOM     18  H   UNL     1       3.725  -2.654   1.039  0.00  0.00    +0.000 HD
ATOM     19  H   UNL     1       2.908  -3.730  -0.114  0.00  0.00    +0.000 HD
BRANCH  17  20
ATOM     20  O   UNL     1       4.706  -4.400   0.597  0.00  0.00    +0.000 OA
ATOM     21  H   UNL     1       5.506  -4.384   0.046  0.00  0.00    +0.000 HD
ENDBRANCH  17  20
ENDBRANCH  14  17
ENDBRANCH   1  14
TORSDOF 6
ENDMDL
MODEL 10
REMARK VINA RESULT:    -3.202     26.656     27.440
REMARK INTER + INTRA:          -4.225
REMARK INTER:                  -4.138
REMARK INTRA:                  -0.088
REMARK UNBOUND:                -0.088
REMARK  Name = 8103
REMARK  6 active torsions:
REMARK  status: ('A' for Active; 'I' for Inactive)
REMARK    1  A    between atoms: O_1  and  C_6
REMARK    2  A    between atoms: C_2  and  C_3
REMARK    3  A    between atoms: C_2  and  C_4
REMARK    4  A    between atoms: C_3  and  C_5
REMARK    5  A    between atoms: C_4  and  C_6
REMARK    6  A    between atoms: C_5  and  C_7
REMARK                            x       y       z     vdW  Elec       q    Type
REMARK                         _______ _______ _______ _____ _____    ______ ____
ROOT
ATOM      1  C   UNL     1     -13.448   9.733  -1.780  0.00  0.00    +0.000 C 
ATOM      2  H   UNL     1     -13.878   9.444  -0.813  0.00  0.00    +0.000 HD
ATOM      3  H   UNL     1     -12.366   9.574  -1.704  0.00  0.00    +0.000 HD
ENDROOT
BRANCH   1   4
ATOM      4  C   UNL     1     -13.720  11.221  -2.020  0.00  0.00    +0.000 C 
ATOM      5  H   UNL     1     -12.998  11.815  -1.448  0.00  0.00    +0.000 HD
ATOM      6  H   UNL     1     -13.547  11.446  -3.080  0.00  0.00    +0.000 HD
BRANCH   4   7
ATOM      7  C   UNL     1     -15.138  11.649  -1.638  0.00  0.00    +0.000 C 
ATOM      8  H   UNL     1     -15.450  12.498  -2.258  0.00  0.00    +0.000 HD
ATOM      9  H   UNL     1     -15.838  10.829  -1.832  0.00  0.00    +0.000 HD
BRANCH   7  10
ATOM     10  C   UNL     1     -15.221  12.047  -0.172  0.00  0.00    +0.000 C 
ATOM     11  H   UNL     1     -15.711  11.259   0.407  0.00  0.00    +0.000 HD
ATOM     12  H   UNL     1     -14.222  12.206   0.248  0.00  0.00    +0.000 HD
ATOM     13  H   UNL     1     -15.797  12.970  -0.048  0.00  0.00    +0.000 HD
ENDBRANCH   7  10
ENDBRANCH   4   7
ENDBRANCH   1   4
BRANCH   1  14
ATOM     14  C   UNL     1     -14.012   8.828  -2.873  0.00  0.00    +0.000 C 
ATOM     15  H   UNL     1     -14.425   9.436  -3.688  0.00  0.00    +0.000 HD
ATOM     16  H   UNL     1     -14.852   8.239  -2.483  0.00  0.00    +0.000 HD
BRANCH  14  17
ATOM     17  C   UNL     1     -12.949   7.888  -3.424  0.00  0.00    +0.000 C 
ATOM     18  H   UNL     1     -13.291   6.848  -3.421  0.00  0.00    +0.000 HD
ATOM     19  H   UNL     1     -12.675   8.160  -4.449  0.00  0.00    +0.000 HD
BRANCH  17  20
ATOM     20  O   UNL     1     -11.786   7.984  -2.614  0.00  0.00    +0.000 OA
ATOM     21  H   UNL     1     -11.812   7.253  -1.974  0.00  0.00    +0.000 HD
ENDBRANCH  17  20
ENDBRANCH  14  17
ENDBRANCH   1  14
TORSDOF 6
ENDMDL
