MODEL 1
REMARK VINA RESULT:    -4.500      0.000      0.000
REMARK INTER + INTRA:          -6.610
REMARK INTER:                  -6.347
REMARK INTRA:                  -0.264
REMARK UNBOUND:                -0.269
REMARK  Name = 957
REMARK  8 active torsions:
REMARK  status: ('A' for Active; 'I' for Inactive)
REMARK    1  A    between atoms: O_1  and  C_8
REMARK    2  A    between atoms: C_2  and  C_3
REMARK    3  A    between atoms: C_2  and  C_4
REMARK    4  A    between atoms: C_3  and  C_5
REMARK    5  A    between atoms: C_4  and  C_6
REMARK    6  A    between atoms: C_5  and  C_7
REMARK    7  A    between atoms: C_6  and  C_8
REMARK    8  A    between atoms: C_7  and  C_9
REMARK                            x       y       z     vdW  Elec       q    Type
REMARK                         _______ _______ _______ _____ _____    ______ ____
ROOT
ATOM      1  C   UNL     1       1.097  -5.480  14.600  0.00  0.00    +0.000 C 
ATOM      2  H   UNL     1       2.148  -5.626  14.322  0.00  0.00    +0.000 HD
ATOM      3  H   UNL     1       0.556  -5.242  13.675  0.00  0.00    +0.000 HD
ENDROOT
BRANCH   1   4
ATOM      4  C   UNL     1       0.545  -6.787  15.176  0.00  0.00    +0.000 C 
ATOM      5  H   UNL     1       0.207  -7.429  14.351  0.00  0.00    +0.000 HD
ATOM      6  H   UNL     1       1.360  -7.323  15.679  0.00  0.00    +0.000 HD
BRANCH   4   7
ATOM      7  C   UNL     1      -0.604  -6.580  16.164  0.00  0.00    +0.000 C 
ATOM      8  H   UNL     1      -1.527  -6.999  15.747  0.00  0.00    +0.000 HD
ATOM      9  H   UNL     1      -0.772  -5.506  16.308  0.00  0.00    +0.000 HD
BRANCH   7  10
ATOM     10  C   UNL     1      -0.299  -7.236  17.512  0.00  0.00    +0.000 C 
ATOM     11  H   UNL     1       0.654  -6.860  17.901  0.00  0.00    +0.000 HD
ATOM     12  H   UNL     1      -1.074  -6.971  18.240  0.00  0.00    +0.000 HD
BRANCH  10  13
ATOM     13  C   UNL     1      -0.228  -8.750  17.391  0.00  0.00    +0.000 C 
ATOM     14  H   UNL     1      -1.014  -9.128  16.730  0.00  0.00    +0.000 HD
ATOM     15  H   UNL     1      -0.342  -9.228  18.369  0.00  0.00    +0.000 HD
ATOM     16  H   UNL     1       0.738  -9.052  16.976  0.00  0.00    +0.000 HD
ENDBRANCH  10  13
ENDBRANCH   7  10
ENDBRANCH   4   7
ENDBRANCH   1   4
BRANCH   1  17
ATOM     17  C   UNL     1       0.983  -4.295  15.562  0.00  0.00    +0.000 C 
ATOM     18  H   UNL     1       0.609  -4.647  16.530  0.00  0.00    +0.000 HD
ATOM     19  H   UNL     1       0.254  -3.574  15.174  0.00  0.00    +0.000 HD
BRANCH  17  20
ATOM     20  C   UNL     1       2.334  -3.606  15.751  0.00  0.00    +0.000 C 
ATOM     21  H   UNL     1       3.130  -4.355  15.843  0.00  0.00    +0.000 HD
ATOM     22  H   UNL     1       2.345  -3.040  16.692  0.00  0.00    +0.000 HD
BRANCH  20  23
ATOM     23  C   UNL     1       2.651  -2.665  14.597  0.00  0.00    +0.000 C 
ATOM     24  H   UNL     1       3.501  -2.015  14.829  0.00  0.00    +0.000 HD
ATOM     25  H   UNL     1       2.882  -3.224  13.685  0.00  0.00    +0.000 HD
BRANCH  23  26
ATOM     26  O   UNL     1       1.513  -1.853  14.342  0.00  0.00    +0.000 OA
ATOM     27  H   UNL     1       1.747  -1.237  13.627  0.00  0.00    +0.000 HD
ENDBRANCH  23  26
ENDBRANCH  20  23
ENDBRANCH  17  20
ENDBRANCH   1  17
TORSDOF 8
ENDMDL
MODEL 2
REMARK VINA RESULT:    -4.165      2.975      4.864
REMARK INTER + INTRA:          -6.139
REMARK INTER:                  -5.884
REMARK INTRA:                  -0.255
REMARK UNBOUND:                -0.269
REMARK  Name = 957
REMARK  8 active torsions:
REMARK  status: ('A' for Active; 'I' for Inactive)
REMARK    1  A    between atoms: O_1  and  C_8
REMARK    2  A    between atoms: C_2  and  C_3
REMARK    3  A    between atoms: C_2  and  C_4
REMARK    4  A    between atoms: C_3  and  C_5
REMARK    5  A    between atoms: C_4  and  C_6
REMARK    6  A    between atoms: C_5  and  C_7
REMARK    7  A    between atoms: C_6  and  C_8
REMARK    8  A    between atoms: C_7  and  C_9
REMARK                            x       y       z     vdW  Elec       q    Type
REMARK                         _______ _______ _______ _____ _____    ______ ____
ROOT
ATOM      1  C   UNL     1       0.524  -6.215  15.093  0.00  0.00    +0.000 C 
ATOM      2  H   UNL     1      -0.395  -6.595  15.558  0.00  0.00    +0.000 HD
ATOM      3  H   UNL     1       0.223  -5.709  14.167  0.00  0.00    +0.000 HD
ENDROOT
BRANCH   1   4
ATOM      4  C   UNL     1       1.171  -5.192  16.031  0.00  0.00    +0.000 C 
ATOM      5  H   UNL     1       0.545  -5.077  16.925  0.00  0.00    +0.000 HD
ATOM      6  H   UNL     1       2.137  -5.586  16.371  0.00  0.00    +0.000 HD
BRANCH   4   7
ATOM      7  C   UNL     1       1.388  -3.823  15.382  0.00  0.00    +0.000 C 
ATOM      8  H   UNL     1       0.542  -3.167  15.617  0.00  0.00    +0.000 HD
ATOM      9  H   UNL     1       1.417  -3.937  14.292  0.00  0.00    +0.000 HD
BRANCH   7  10
ATOM     10  C   UNL     1       2.691  -3.183  15.865  0.00  0.00    +0.000 C 
ATOM     11  H   UNL     1       2.467  -2.315  16.496  0.00  0.00    +0.000 HD
ATOM     12  H   UNL     1       3.252  -3.896  16.480  0.00  0.00    +0.000 HD
BRANCH  10  13
ATOM     13  C   UNL     1       3.561  -2.743  14.698  0.00  0.00    +0.000 C 
ATOM     14  H   UNL     1       3.007  -2.794  13.755  0.00  0.00    +0.000 HD
ATOM     15  H   UNL     1       4.450  -3.376  14.610  0.00  0.00    +0.000 HD
ATOM     16  H   UNL     1       3.892  -1.710  14.841  0.00  0.00    +0.000 HD
ENDBRANCH  10  13
ENDBRANCH   7  10
ENDBRANCH   4   7
ENDBRANCH   1   4
BRANCH   1  17
ATOM     17  C   UNL     1       1.443  -7.388  14.745  0.00  0.00    +0.000 C 
ATOM     18  H   UNL     1       0.838  -8.231  14.389  0.00  0.00    +0.000 HD
ATOM     19  H   UNL     1       1.969  -7.724  15.646  0.00  0.00    +0.000 HD
BRANCH  17  20
ATOM     20  C   UNL     1       2.460  -6.995  13.673  0.00  0.00    +0.000 C 
ATOM     21  H   UNL     1       2.753  -5.946  13.800  0.00  0.00    +0.000 HD
ATOM     22  H   UNL     1       2.007  -7.063  12.676  0.00  0.00    +0.000 HD
BRANCH  20  23
ATOM     23  C   UNL     1       3.697  -7.880  13.723  0.00  0.00    +0.000 C 
ATOM     24  H   UNL     1       4.616  -7.286  13.762  0.00  0.00    +0.000 HD
ATOM     25  H   UNL     1       3.674  -8.542  14.595  0.00  0.00    +0.000 HD
BRANCH  23  26
ATOM     26  O   UNL     1       3.729  -8.690  12.555  0.00  0.00    +0.000 OA
ATOM     27  H   UNL     1       2.810  -8.833  12.271  0.00  0.00    +0.000 HD
ENDBRANCH  23  26
ENDBRANCH  20  23
ENDBRANCH  17  20
ENDBRANCH   1  17
TORSDOF 8
ENDMDL
MODEL 3
REMARK VINA RESULT:    -4.011     17.136     18.144
REMARK INTER + INTRA:          -5.921
REMARK INTER:                  -5.738
REMARK INTRA:                  -0.183
REMARK UNBOUND:                -0.269
REMARK  Name = 957
REMARK  8 active torsions:
REMARK  status: ('A' for Active; 'I' for Inactive)
REMARK    1  A    between atoms: O_1  and  C_8
REMARK    2  A    between atoms: C_2  and  C_3
REMARK    3  A    between atoms: C_2  and  C_4
REMARK    4  A    between atoms: C_3  and  C_5
REMARK    5  A    between atoms: C_4  and  C_6
REMARK    6  A    between atoms: C_5  and  C_7
REMARK    7  A    between atoms: C_6  and  C_8
REMARK    8  A    between atoms: C_7  and  C_9
REMARK                            x       y       z     vdW  Elec       q    Type
REMARK                         _______ _______ _______ _____ _____    ______ ____
ROOT
ATOM      1  C   UNL     1     -12.806 -15.825   7.727  0.00  0.00    +0.000 C 
ATOM      2  H   UNL     1     -12.989 -16.839   8.104  0.00  0.00    +0.000 HD
ATOM      3  H   UNL     1     -13.017 -15.845   6.650  0.00  0.00    +0.000 HD
ENDROOT
BRANCH   1   4
ATOM      4  C   UNL     1     -13.777 -14.856   8.407  0.00  0.00    +0.000 C 
ATOM      5  H   UNL     1     -13.795 -13.912   7.846  0.00  0.00    +0.000 HD
ATOM      6  H   UNL     1     -14.790 -15.274   8.352  0.00  0.00    +0.000 HD
BRANCH   4   7
ATOM      7  C   UNL     1     -13.431 -14.572   9.869  0.00  0.00    +0.000 C 
ATOM      8  H   UNL     1     -12.670 -13.783   9.920  0.00  0.00    +0.000 HD
ATOM      9  H   UNL     1     -12.995 -15.471  10.322  0.00  0.00    +0.000 HD
BRANCH   7  10
ATOM     10  C   UNL     1     -14.670 -14.150  10.660  0.00  0.00    +0.000 C 
ATOM     11  H   UNL     1     -15.480 -14.870  10.494  0.00  0.00    +0.000 HD
ATOM     12  H   UNL     1     -14.447 -14.153  11.733  0.00  0.00    +0.000 HD
BRANCH  10  13
ATOM     13  C   UNL     1     -15.143 -12.763  10.255  0.00  0.00    +0.000 C 
ATOM     14  H   UNL     1     -14.299 -12.070  10.170  0.00  0.00    +0.000 HD
ATOM     15  H   UNL     1     -15.848 -12.358  10.989  0.00  0.00    +0.000 HD
ATOM     16  H   UNL     1     -15.648 -12.802   9.285  0.00  0.00    +0.000 HD
ENDBRANCH  10  13
ENDBRANCH   7  10
ENDBRANCH   4   7
ENDBRANCH   1   4
BRANCH   1  17
ATOM     17  C   UNL     1     -11.334 -15.460   7.939  0.00  0.00    +0.000 C 
ATOM     18  H   UNL     1     -11.268 -14.584   8.595  0.00  0.00    +0.000 HD
ATOM     19  H   UNL     1     -10.882 -15.182   6.980  0.00  0.00    +0.000 HD
BRANCH  17  20
ATOM     20  C   UNL     1     -10.559 -16.625   8.554  0.00  0.00    +0.000 C 
ATOM     21  H   UNL     1     -11.080 -17.570   8.355  0.00  0.00    +0.000 HD
ATOM     22  H   UNL     1     -10.524 -16.525   9.646  0.00  0.00    +0.000 HD
BRANCH  20  23
ATOM     23  C   UNL     1      -9.139 -16.702   8.012  0.00  0.00    +0.000 C 
ATOM     24  H   UNL     1      -8.951 -17.656   7.509  0.00  0.00    +0.000 HD
ATOM     25  H   UNL     1      -8.943 -15.891   7.303  0.00  0.00    +0.000 HD
BRANCH  23  26
ATOM     26  O   UNL     1      -8.227 -16.572   9.095  0.00  0.00    +0.000 OA
ATOM     27  H   UNL     1      -8.674 -16.896   9.895  0.00  0.00    +0.000 HD
ENDBRANCH  23  26
ENDBRANCH  20  23
ENDBRANCH  17  20
ENDBRANCH   1  17
TORSDOF 8
ENDMDL
MODEL 4
REMARK VINA RESULT:    -3.939      2.425      4.952
REMARK INTER + INTRA:          -5.820
REMARK INTER:                  -5.466
REMARK INTRA:                  -0.354
REMARK UNBOUND:                -0.269
REMARK  Name = 957
REMARK  8 active torsions:
REMARK  status: ('A' for Active; 'I' for Inactive)
REMARK    1  A    between atoms: O_1  and  C_8
REMARK    2  A    between atoms: C_2  and  C_3
REMARK    3  A    between atoms: C_2  and  C_4
REMARK    4  A    between atoms: C_3  and  C_5
REMARK    5  A    between atoms: C_4  and  C_6
REMARK    6  A    between atoms: C_5  and  C_7
REMARK    7  A    between atoms: C_6  and  C_8
REMARK    8  A    between atoms: C_7  and  C_9
REMARK                            x       y       z     vdW  Elec       q    Type
REMARK                         _______ _______ _______ _____ _____    ______ ____
ROOT
ATOM      1  C   UNL     1       0.361  -4.930  16.153  0.00  0.00    +0.000 C 
ATOM      2  H   UNL     1       0.994  -4.722  17.025  0.00  0.00    +0.000 HD
ATOM      3  H   UNL     1      -0.293  -4.059  16.022  0.00  0.00    +0.000 HD
ENDROOT
BRANCH   1   4
ATOM      4  C   UNL     1       1.249  -5.076  14.914  0.00  0.00    +0.000 C 
ATOM      5  H   UNL     1       1.102  -6.075  14.482  0.00  0.00    +0.000 HD
ATOM      6  H   UNL     1       0.920  -4.354  14.157  0.00  0.00    +0.000 HD
BRANCH   4   7
ATOM      7  C   UNL     1       2.736  -4.860  15.201  0.00  0.00    +0.000 C 
ATOM      8  H   UNL     1       3.306  -4.947  14.269  0.00  0.00    +0.000 HD
ATOM      9  H   UNL     1       3.095  -5.648  15.874  0.00  0.00    +0.000 HD
BRANCH   7  10
ATOM     10  C   UNL     1       2.983  -3.491  15.836  0.00  0.00    +0.000 C 
ATOM     11  H   UNL     1       2.045  -3.094  16.242  0.00  0.00    +0.000 HD
ATOM     12  H   UNL     1       3.684  -3.589  16.673  0.00  0.00    +0.000 HD
BRANCH  10  13
ATOM     13  C   UNL     1       3.549  -2.504  14.828  0.00  0.00    +0.000 C 
ATOM     14  H   UNL     1       4.575  -2.222  15.088  0.00  0.00    +0.000 HD
ATOM     15  H   UNL     1       2.942  -1.594  14.785  0.00  0.00    +0.000 HD
ATOM     16  H   UNL     1       3.564  -2.949  13.828  0.00  0.00    +0.000 HD
ENDBRANCH  10  13
ENDBRANCH   7  10
ENDBRANCH   4   7
ENDBRANCH   1   4
BRANCH   1  17
ATOM     17  C   UNL     1      -0.501  -6.164  16.433  0.00  0.00    +0.000 C 
ATOM     18  H   UNL     1      -0.730  -6.670  15.488  0.00  0.00    +0.000 HD
ATOM     19  H   UNL     1      -1.455  -5.853  16.874  0.00  0.00    +0.000 HD
BRANCH  17  20
ATOM     20  C   UNL     1       0.210  -7.132  17.378  0.00  0.00    +0.000 C 
ATOM     21  H   UNL     1      -0.468  -7.439  18.183  0.00  0.00    +0.000 HD
ATOM     22  H   UNL     1       1.055  -6.633  17.870  0.00  0.00    +0.000 HD
BRANCH  20  23
ATOM     23  C   UNL     1       0.717  -8.364  16.641  0.00  0.00    +0.000 C 
ATOM     24  H   UNL     1       0.563  -9.276  17.227  0.00  0.00    +0.000 HD
ATOM     25  H   UNL     1       0.211  -8.482  15.677  0.00  0.00    +0.000 HD
BRANCH  23  26
ATOM     26  O   UNL     1       2.108  -8.211  16.394  0.00  0.00    +0.000 OA
ATOM     27  H   UNL     1       2.260  -7.288  16.131  0.00  0.00    +0.000 HD
ENDBRANCH  23  26
ENDBRANCH  20  23
ENDBRANCH  17  20
ENDBRANCH   1  17
TORSDOF 8
ENDMDL
MODEL 5
REMARK VINA RESULT:    -3.915     15.243     16.136
REMARK INTER + INTRA:          -5.785
REMARK INTER:                  -5.340
REMARK INTRA:                  -0.445
REMARK UNBOUND:                -0.269
REMARK  Name = 957
REMARK  8 active torsions:
REMARK  status: ('A' for Active; 'I' for Inactive)
REMARK    1  A    between atoms: O_1  and  C_8
REMARK    2  A    between atoms: C_2  and  C_3
REMARK    3  A    between atoms: C_2  and  C_4
REMARK    4  A    between atoms: C_3  and  C_5
REMARK    5  A    between atoms: C_4  and  C_6
REMARK    6  A    between atoms: C_5  and  C_7
REMARK    7  A    between atoms: C_6  and  C_8
REMARK    8  A    between atoms: C_7  and  C_9
REMARK                            x       y       z     vdW  Elec       q    Type
REMARK                         _______ _______ _______ _____ _____    ______ ____
ROOT
ATOM      1  C   UNL     1       3.017 -11.445   1.405  0.00  0.00    +0.000 C 
ATOM      2  H   UNL     1       2.112 -11.602   0.804  0.00  0.00    +0.000 HD
ATOM      3  H   UNL     1       3.191 -10.362   1.437  0.00  0.00    +0.000 HD
ENDROOT
BRANCH   1   4
ATOM      4  C   UNL     1       2.765 -11.951   2.828  0.00  0.00    +0.000 C 
ATOM      5  H   UNL     1       3.719 -11.985   3.372  0.00  0.00    +0.000 HD
ATOM      6  H   UNL     1       2.128 -11.228   3.353  0.00  0.00    +0.000 HD
BRANCH   4   7
ATOM      7  C   UNL     1       2.104 -13.329   2.876  0.00  0.00    +0.000 C 
ATOM      8  H   UNL     1       1.981 -13.714   1.856  0.00  0.00    +0.000 HD
ATOM      9  H   UNL     1       1.100 -13.237   3.310  0.00  0.00    +0.000 HD
BRANCH   7  10
ATOM     10  C   UNL     1       2.932 -14.312   3.705  0.00  0.00    +0.000 C 
ATOM     11  H   UNL     1       3.738 -13.777   4.221  0.00  0.00    +0.000 HD
ATOM     12  H   UNL     1       2.303 -14.772   4.476  0.00  0.00    +0.000 HD
BRANCH  10  13
ATOM     13  C   UNL     1       3.533 -15.405   2.837  0.00  0.00    +0.000 C 
ATOM     14  H   UNL     1       3.348 -16.395   3.268  0.00  0.00    +0.000 HD
ATOM     15  H   UNL     1       4.614 -15.273   2.731  0.00  0.00    +0.000 HD
ATOM     16  H   UNL     1       3.088 -15.383   1.837  0.00  0.00    +0.000 HD
ENDBRANCH  10  13
ENDBRANCH   7  10
ENDBRANCH   4   7
ENDBRANCH   1   4
BRANCH   1  17
ATOM     17  C   UNL     1       4.207 -12.121   0.720  0.00  0.00    +0.000 C 
ATOM     18  H   UNL     1       4.506 -11.532  -0.155  0.00  0.00    +0.000 HD
ATOM     19  H   UNL     1       3.909 -13.112   0.357  0.00  0.00    +0.000 HD
BRANCH  17  20
ATOM     20  C   UNL     1       5.390 -12.260   1.678  0.00  0.00    +0.000 C 
ATOM     21  H   UNL     1       5.358 -13.236   2.177  0.00  0.00    +0.000 HD
ATOM     22  H   UNL     1       5.323 -11.511   2.477  0.00  0.00    +0.000 HD
BRANCH  20  23
ATOM     23  C   UNL     1       6.720 -12.101   0.953  0.00  0.00    +0.000 C 
ATOM     24  H   UNL     1       7.442 -11.541   1.556  0.00  0.00    +0.000 HD
ATOM     25  H   UNL     1       7.154 -13.075   0.708  0.00  0.00    +0.000 HD
BRANCH  23  26
ATOM     26  O   UNL     1       6.499 -11.397  -0.262  0.00  0.00    +0.000 OA
ATOM     27  H   UNL     1       6.138 -12.029  -0.906  0.00  0.00    +0.000 HD
ENDBRANCH  23  26
ENDBRANCH  20  23
ENDBRANCH  17  20
ENDBRANCH   1  17
TORSDOF 8
ENDMDL
MODEL 6
REMARK VINA RESULT:    -3.895     19.830     21.139
REMARK INTER + INTRA:          -5.758
REMARK INTER:                  -5.638
REMARK INTRA:                  -0.120
REMARK UNBOUND:                -0.269
REMARK  Name = 957
REMARK  8 active torsions:
REMARK  status: ('A' for Active; 'I' for Inactive)
REMARK    1  A    between atoms: O_1  and  C_8
REMARK    2  A    between atoms: C_2  and  C_3
REMARK    3  A    between atoms: C_2  and  C_4
REMARK    4  A    between atoms: C_3  and  C_5
REMARK    5  A    between atoms: C_4  and  C_6
REMARK    6  A    between atoms: C_5  and  C_7
REMARK    7  A    between atoms: C_6  and  C_8
REMARK    8  A    between atoms: C_7  and  C_9
REMARK                            x       y       z     vdW  Elec       q    Type
REMARK                         _______ _______ _______ _____ _____    ______ ____
ROOT
ATOM      1  C   UNL     1      10.781  -8.928  -1.363  0.00  0.00    +0.000 C 
ATOM      2  H   UNL     1      11.639  -8.368  -0.969  0.00  0.00    +0.000 HD
ATOM      3  H   UNL     1      10.181  -8.217  -1.946  0.00  0.00    +0.000 HD
ENDROOT
BRANCH   1   4
ATOM      4  C   UNL     1      11.289 -10.032  -2.295  0.00  0.00    +0.000 C 
ATOM      5  H   UNL     1      11.511 -10.928  -1.701  0.00  0.00    +0.000 HD
ATOM      6  H   UNL     1      10.485 -10.305  -2.989  0.00  0.00    +0.000 HD
BRANCH   4   7
ATOM      7  C   UNL     1      12.529  -9.631  -3.095  0.00  0.00    +0.000 C 
ATOM      8  H   UNL     1      13.168  -8.983  -2.483  0.00  0.00    +0.000 HD
ATOM      9  H   UNL     1      12.223  -9.048  -3.973  0.00  0.00    +0.000 HD
BRANCH   7  10
ATOM     10  C   UNL     1      13.317 -10.860  -3.547  0.00  0.00    +0.000 C 
ATOM     11  H   UNL     1      13.545 -11.495  -2.683  0.00  0.00    +0.000 HD
ATOM     12  H   UNL     1      12.712 -11.459  -4.239  0.00  0.00    +0.000 HD
BRANCH  10  13
ATOM     13  C   UNL     1      14.615 -10.468  -4.235  0.00  0.00    +0.000 C 
ATOM     14  H   UNL     1      14.963 -11.266  -4.899  0.00  0.00    +0.000 HD
ATOM     15  H   UNL     1      15.402 -10.262  -3.503  0.00  0.00    +0.000 HD
ATOM     16  H   UNL     1      14.467  -9.567  -4.838  0.00  0.00    +0.000 HD
ENDBRANCH  10  13
ENDBRANCH   7  10
ENDBRANCH   4   7
ENDBRANCH   1   4
BRANCH   1  17
ATOM     17  C   UNL     1       9.938  -9.453  -0.199  0.00  0.00    +0.000 C 
ATOM     18  H   UNL     1      10.040  -8.778   0.659  0.00  0.00    +0.000 HD
ATOM     19  H   UNL     1      10.314 -10.434   0.115  0.00  0.00    +0.000 HD
BRANCH  17  20
ATOM     20  C   UNL     1       8.465  -9.570  -0.591  0.00  0.00    +0.000 C 
ATOM     21  H   UNL     1       8.333  -9.292  -1.644  0.00  0.00    +0.000 HD
ATOM     22  H   UNL     1       7.860  -8.859  -0.014  0.00  0.00    +0.000 HD
BRANCH  20  23
ATOM     23  C   UNL     1       7.934 -10.979  -0.365  0.00  0.00    +0.000 C 
ATOM     24  H   UNL     1       8.341 -11.685  -1.096  0.00  0.00    +0.000 HD
ATOM     25  H   UNL     1       8.183 -11.337   0.639  0.00  0.00    +0.000 HD
BRANCH  23  26
ATOM     26  O   UNL     1       6.518 -10.961  -0.489  0.00  0.00    +0.000 OA
ATOM     27  H   UNL     1       6.180 -11.791  -0.113  0.00  0.00    +0.000 HD
ENDBRANCH  23  26
ENDBRANCH  20  23
ENDBRANCH  17  20
ENDBRANCH   1  17
TORSDOF 8
ENDMDL
MODEL 7
REMARK VINA RESULT:    -3.874      1.671      2.783
REMARK INTER + INTRA:          -5.729
REMARK INTER:                  -5.335
REMARK INTRA:                  -0.393
REMARK UNBOUND:                -0.269
REMARK  Name = 957
REMARK  8 active torsions:
REMARK  status: ('A' for Active; 'I' for Inactive)
REMARK    1  A    between atoms: O_1  and  C_8
REMARK    2  A    between atoms: C_2  and  C_3
REMARK    3  A    between atoms: C_2  and  C_4
REMARK    4  A    between atoms: C_3  and  C_5
REMARK    5  A    between atoms: C_4  and  C_6
REMARK    6  A    between atoms: C_5  and  C_7
REMARK    7  A    between atoms: C_6  and  C_8
REMARK    8  A    between atoms: C_7  and  C_9
REMARK                            x       y       z     vdW  Elec       q    Type
REMARK                         _______ _______ _______ _____ _____    ______ ____
ROOT
ATOM      1  C   UNL     1       0.083  -6.249  15.952  0.00  0.00    +0.000 C 
ATOM      2  H   UNL     1      -0.997  -6.329  15.776  0.00  0.00    +0.000 HD
ATOM      3  H   UNL     1       0.291  -6.783  16.888  0.00  0.00    +0.000 HD
ENDROOT
BRANCH   1   4
ATOM      4  C   UNL     1       0.829  -6.941  14.808  0.00  0.00    +0.000 C 
ATOM      5  H   UNL     1       0.124  -7.570  14.248  0.00  0.00    +0.000 HD
ATOM      6  H   UNL     1       1.193  -6.177  14.110  0.00  0.00    +0.000 HD
BRANCH   4   7
ATOM      7  C   UNL     1       2.009  -7.794  15.278  0.00  0.00    +0.000 C 
ATOM      8  H   UNL     1       1.715  -8.850  15.296  0.00  0.00    +0.000 HD
ATOM      9  H   UNL     1       2.275  -7.514  16.304  0.00  0.00    +0.000 HD
BRANCH   7  10
ATOM     10  C   UNL     1       3.223  -7.608  14.366  0.00  0.00    +0.000 C 
ATOM     11  H   UNL     1       3.775  -8.552  14.284  0.00  0.00    +0.000 HD
ATOM     12  H   UNL     1       2.893  -7.336  13.356  0.00  0.00    +0.000 HD
BRANCH  10  13
ATOM     13  C   UNL     1       4.154  -6.528  14.891  0.00  0.00    +0.000 C 
ATOM     14  H   UNL     1       4.283  -6.613  15.975  0.00  0.00    +0.000 HD
ATOM     15  H   UNL     1       3.764  -5.529  14.669  0.00  0.00    +0.000 HD
ATOM     16  H   UNL     1       5.141  -6.618  14.426  0.00  0.00    +0.000 HD
ENDBRANCH  10  13
ENDBRANCH   7  10
ENDBRANCH   4   7
ENDBRANCH   1   4
BRANCH   1  17
ATOM     17  C   UNL     1       0.464  -4.776  16.124  0.00  0.00    +0.000 C 
ATOM     18  H   UNL     1       1.072  -4.661  17.029  0.00  0.00    +0.000 HD
ATOM     19  H   UNL     1      -0.442  -4.176  16.264  0.00  0.00    +0.000 HD
BRANCH  17  20
ATOM     20  C   UNL     1       1.240  -4.261  14.912  0.00  0.00    +0.000 C 
ATOM     21  H   UNL     1       0.553  -4.071  14.079  0.00  0.00    +0.000 HD
ATOM     22  H   UNL     1       1.942  -5.026  14.556  0.00  0.00    +0.000 HD
BRANCH  20  23
ATOM     23  C   UNL     1       2.009  -2.989  15.239  0.00  0.00    +0.000 C 
ATOM     24  H   UNL     1       1.900  -2.711  16.292  0.00  0.00    +0.000 HD
ATOM     25  H   UNL     1       3.076  -3.107  15.021  0.00  0.00    +0.000 HD
BRANCH  23  26
ATOM     26  O   UNL     1       1.508  -1.930  14.434  0.00  0.00    +0.000 OA
ATOM     27  H   UNL     1       1.014  -2.329  13.698  0.00  0.00    +0.000 HD
ENDBRANCH  23  26
ENDBRANCH  20  23
ENDBRANCH  17  20
ENDBRANCH   1  17
TORSDOF 8
ENDMDL
MODEL 8
REMARK VINA RESULT:    -3.856     20.646     21.969
REMARK INTER + INTRA:          -5.702
REMARK INTER:                  -5.474
REMARK INTRA:                  -0.228
REMARK UNBOUND:                -0.269
REMARK  Name = 957
REMARK  8 active torsions:
REMARK  status: ('A' for Active; 'I' for Inactive)
REMARK    1  A    between atoms: O_1  and  C_8
REMARK    2  A    between atoms: C_2  and  C_3
REMARK    3  A    between atoms: C_2  and  C_4
REMARK    4  A    between atoms: C_3  and  C_5
REMARK    5  A    between atoms: C_4  and  C_6
REMARK    6  A    between atoms: C_5  and  C_7
REMARK    7  A    between atoms: C_6  and  C_8
REMARK    8  A    between atoms: C_7  and  C_9
REMARK                            x       y       z     vdW  Elec       q    Type
REMARK                         _______ _______ _______ _____ _____    ______ ____
ROOT
ATOM      1  C   UNL     1      11.681 -10.199  -2.653  0.00  0.00    +0.000 C 
ATOM      2  H   UNL     1      11.029 -10.349  -3.523  0.00  0.00    +0.000 HD
ATOM      3  H   UNL     1      11.674 -11.139  -2.087  0.00  0.00    +0.000 HD
ENDROOT
BRANCH   1   4
ATOM      4  C   UNL     1      13.106  -9.921  -3.140  0.00  0.00    +0.000 C 
ATOM      5  H   UNL     1      13.565  -9.161  -2.493  0.00  0.00    +0.000 HD
ATOM      6  H   UNL     1      13.703 -10.834  -3.026  0.00  0.00    +0.000 HD
BRANCH   4   7
ATOM      7  C   UNL     1      13.173  -9.457  -4.596  0.00  0.00    +0.000 C 
ATOM      8  H   UNL     1      14.054  -9.893  -5.081  0.00  0.00    +0.000 HD
ATOM      9  H   UNL     1      13.293  -8.367  -4.626  0.00  0.00    +0.000 HD
BRANCH   7  10
ATOM     10  C   UNL     1      11.910  -9.854  -5.361  0.00  0.00    +0.000 C 
ATOM     11  H   UNL     1      12.054 -10.831  -5.836  0.00  0.00    +0.000 HD
ATOM     12  H   UNL     1      11.067  -9.951  -4.667  0.00  0.00    +0.000 HD
BRANCH  10  13
ATOM     13  C   UNL     1      11.558  -8.827  -6.427  0.00  0.00    +0.000 C 
ATOM     14  H   UNL     1      11.997  -7.852  -6.192  0.00  0.00    +0.000 HD
ATOM     15  H   UNL     1      10.474  -8.705  -6.512  0.00  0.00    +0.000 HD
ATOM     16  H   UNL     1      11.942  -9.146  -7.401  0.00  0.00    +0.000 HD
ENDBRANCH  10  13
ENDBRANCH   7  10
ENDBRANCH   4   7
ENDBRANCH   1   4
BRANCH   1  17
ATOM     17  C   UNL     1      11.109  -9.083  -1.775  0.00  0.00    +0.000 C 
ATOM     18  H   UNL     1      10.501  -8.410  -2.391  0.00  0.00    +0.000 HD
ATOM     19  H   UNL     1      11.929  -8.488  -1.356  0.00  0.00    +0.000 HD
BRANCH  17  20
ATOM     20  C   UNL     1      10.258  -9.654  -0.640  0.00  0.00    +0.000 C 
ATOM     21  H   UNL     1      10.765  -9.507   0.321  0.00  0.00    +0.000 HD
ATOM     22  H   UNL     1      10.146 -10.740  -0.758  0.00  0.00    +0.000 HD
BRANCH  20  23
ATOM     23  C   UNL     1       8.880  -9.010  -0.594  0.00  0.00    +0.000 C 
ATOM     24  H   UNL     1       8.944  -7.918  -0.635  0.00  0.00    +0.000 HD
ATOM     25  H   UNL     1       8.258  -9.352  -1.427  0.00  0.00    +0.000 HD
BRANCH  23  26
ATOM     26  O   UNL     1       8.240  -9.382   0.619  0.00  0.00    +0.000 OA
ATOM     27  H   UNL     1       7.972 -10.313   0.535  0.00  0.00    +0.000 HD
ENDBRANCH  23  26
ENDBRANCH  20  23
ENDBRANCH  17  20
ENDBRANCH   1  17
TORSDOF 8
ENDMDL
MODEL 9
REMARK VINA RESULT:    -3.776     23.741     24.924
REMARK INTER + INTRA:          -5.590
REMARK INTER:                  -5.198
REMARK INTRA:                  -0.391
REMARK UNBOUND:                -0.269
REMARK  Name = 957
REMARK  8 active torsions:
REMARK  status: ('A' for Active; 'I' for Inactive)
REMARK    1  A    between atoms: O_1  and  C_8
REMARK    2  A    between atoms: C_2  and  C_3
REMARK    3  A    between atoms: C_2  and  C_4
REMARK    4  A    between atoms: C_3  and  C_5
REMARK    5  A    between atoms: C_4  and  C_6
REMARK    6  A    between atoms: C_5  and  C_7
REMARK    7  A    between atoms: C_6  and  C_8
REMARK    8  A    between atoms: C_7  and  C_9
REMARK                            x       y       z     vdW  Elec       q    Type
REMARK                         _______ _______ _______ _____ _____    ______ ____
ROOT
ATOM      1  C   UNL     1      -5.704  -6.129  -8.441  0.00  0.00    +0.000 C 
ATOM      2  H   UNL     1      -4.925  -5.894  -7.706  0.00  0.00    +0.000 HD
ATOM      3  H   UNL     1      -6.148  -5.173  -8.747  0.00  0.00    +0.000 HD
ENDROOT
BRANCH   1   4
ATOM      4  C   UNL     1      -5.057  -6.791  -9.661  0.00  0.00    +0.000 C 
ATOM      5  H   UNL     1      -5.351  -7.848  -9.694  0.00  0.00    +0.000 HD
ATOM      6  H   UNL     1      -5.457  -6.324 -10.570  0.00  0.00    +0.000 HD
BRANCH   4   7
ATOM      7  C   UNL     1      -3.531  -6.686  -9.673  0.00  0.00    +0.000 C 
ATOM      8  H   UNL     1      -3.213  -5.875  -9.006  0.00  0.00    +0.000 HD
ATOM      9  H   UNL     1      -3.192  -6.427 -10.683  0.00  0.00    +0.000 HD
BRANCH   7  10
ATOM     10  C   UNL     1      -2.883  -8.001  -9.237  0.00  0.00    +0.000 C 
ATOM     11  H   UNL     1      -1.833  -8.020  -9.550  0.00  0.00    +0.000 HD
ATOM     12  H   UNL     1      -2.897  -8.079  -8.144  0.00  0.00    +0.000 HD
BRANCH  10  13
ATOM     13  C   UNL     1      -3.605  -9.201  -9.830  0.00  0.00    +0.000 C 
ATOM     14  H   UNL     1      -3.024 -10.118  -9.686  0.00  0.00    +0.000 HD
ATOM     15  H   UNL     1      -3.775  -9.066 -10.903  0.00  0.00    +0.000 HD
ATOM     16  H   UNL     1      -4.577  -9.336  -9.346  0.00  0.00    +0.000 HD
ENDBRANCH  10  13
ENDBRANCH   7  10
ENDBRANCH   4   7
ENDBRANCH   1   4
BRANCH   1  17
ATOM     17  C   UNL     1      -6.784  -6.991  -7.782  0.00  0.00    +0.000 C 
ATOM     18  H   UNL     1      -7.454  -7.387  -8.553  0.00  0.00    +0.000 HD
ATOM     19  H   UNL     1      -7.391  -6.372  -7.111  0.00  0.00    +0.000 HD
BRANCH  17  20
ATOM     20  C   UNL     1      -6.164  -8.145  -6.994  0.00  0.00    +0.000 C 
ATOM     21  H   UNL     1      -5.083  -7.995  -6.894  0.00  0.00    +0.000 HD
ATOM     22  H   UNL     1      -6.288  -9.089  -7.541  0.00  0.00    +0.000 HD
BRANCH  20  23
ATOM     23  C   UNL     1      -6.790  -8.282  -5.613  0.00  0.00    +0.000 C 
ATOM     24  H   UNL     1      -7.237  -7.340  -5.279  0.00  0.00    +0.000 HD
ATOM     25  H   UNL     1      -7.565  -9.055  -5.607  0.00  0.00    +0.000 HD
BRANCH  23  26
ATOM     26  O   UNL     1      -5.780  -8.660  -4.687  0.00  0.00    +0.000 OA
ATOM     27  H   UNL     1      -4.996  -8.114  -4.870  0.00  0.00    +0.000 HD
ENDBRANCH  23  26
ENDBRANCH  20  23
ENDBRANCH  17  20
ENDBRANCH   1  17
TORSDOF 8
ENDMDL
MODEL 10
REMARK VINA RESULT:    -3.677     24.426     25.519
REMARK INTER + INTRA:          -5.451
REMARK INTER:                  -5.182
REMARK INTRA:                  -0.269
REMARK UNBOUND:                -0.269
REMARK  Name = 957
REMARK  8 active torsions:
REMARK  status: ('A' for Active; 'I' for Inactive)
REMARK    1  A    between atoms: O_1  and  C_8
REMARK    2  A    between atoms: C_2  and  C_3
REMARK    3  A    between atoms: C_2  and  C_4
REMARK    4  A    between atoms: C_3  and  C_5
REMARK    5  A    between atoms: C_4  and  C_6
REMARK    6  A    between atoms: C_5  and  C_7
REMARK    7  A    between atoms: C_6  and  C_8
REMARK    8  A    between atoms: C_7  and  C_9
REMARK                            x       y       z     vdW  Elec       q    Type
REMARK                         _______ _______ _______ _____ _____    ______ ____
ROOT
ATOM      1  C   UNL     1      -2.781  -8.086  -9.298  0.00  0.00    +0.000 C 
ATOM      2  H   UNL     1      -2.014  -8.346 -10.038  0.00  0.00    +0.000 HD
ATOM      3  H   UNL     1      -2.262  -7.943  -8.342  0.00  0.00    +0.000 HD
ENDROOT
BRANCH   1   4
ATOM      4  C   UNL     1      -3.444  -6.768  -9.707  0.00  0.00    +0.000 C 
ATOM      5  H   UNL     1      -3.185  -5.993  -8.973  0.00  0.00    +0.000 HD
ATOM      6  H   UNL     1      -3.026  -6.445 -10.668  0.00  0.00    +0.000 HD
BRANCH   4   7
ATOM      7  C   UNL     1      -4.966  -6.864  -9.830  0.00  0.00    +0.000 C 
ATOM      8  H   UNL     1      -5.267  -7.918  -9.848  0.00  0.00    +0.000 HD
ATOM      9  H   UNL     1      -5.284  -6.420 -10.781  0.00  0.00    +0.000 HD
BRANCH   7  10
ATOM     10  C   UNL     1      -5.661  -6.146  -8.672  0.00  0.00    +0.000 C 
ATOM     11  H   UNL     1      -5.429  -6.652  -7.728  0.00  0.00    +0.000 HD
ATOM     12  H   UNL     1      -5.286  -5.119  -8.591  0.00  0.00    +0.000 HD
BRANCH  10  13
ATOM     13  C   UNL     1      -7.169  -6.110  -8.864  0.00  0.00    +0.000 C 
ATOM     14  H   UNL     1      -7.478  -5.188  -9.368  0.00  0.00    +0.000 HD
ATOM     15  H   UNL     1      -7.689  -6.167  -7.902  0.00  0.00    +0.000 HD
ATOM     16  H   UNL     1      -7.493  -6.957  -9.476  0.00  0.00    +0.000 HD
ENDBRANCH  10  13
ENDBRANCH   7  10
ENDBRANCH   4   7
ENDBRANCH   1   4
BRANCH   1  17
ATOM     17  C   UNL     1      -3.769  -9.247  -9.159  0.00  0.00    +0.000 C 
ATOM     18  H   UNL     1      -3.442 -10.081  -9.792  0.00  0.00    +0.000 HD
ATOM     19  H   UNL     1      -4.757  -8.935  -9.518  0.00  0.00    +0.000 HD
BRANCH  17  20
ATOM     20  C   UNL     1      -3.874  -9.713  -7.707  0.00  0.00    +0.000 C 
ATOM     21  H   UNL     1      -4.344  -8.933  -7.095  0.00  0.00    +0.000 HD
ATOM     22  H   UNL     1      -2.874  -9.866  -7.282  0.00  0.00    +0.000 HD
BRANCH  20  23
ATOM     23  C   UNL     1      -4.672 -11.004  -7.588  0.00  0.00    +0.000 C 
ATOM     24  H   UNL     1      -5.641 -10.836  -7.108  0.00  0.00    +0.000 HD
ATOM     25  H   UNL     1      -4.845 -11.451  -8.572  0.00  0.00    +0.000 HD
BRANCH  23  26
ATOM     26  O   UNL     1      -3.931 -11.930  -6.805  0.00  0.00    +0.000 OA
ATOM     27  H   UNL     1      -4.553 -12.605  -6.483  0.00  0.00    +0.000 HD
ENDBRANCH  23  26
ENDBRANCH  20  23
ENDBRANCH  17  20
ENDBRANCH   1  17
TORSDOF 8
ENDMDL
