MODEL 1
REMARK VINA RESULT:    -3.669      0.000      0.000
REMARK INTER + INTRA:          -4.552
REMARK INTER:                  -4.543
REMARK INTRA:                  -0.010
REMARK UNBOUND:                -0.026
REMARK  Name = 6276
REMARK  5 active torsions:
REMARK  status: ('A' for Active; 'I' for Inactive)
REMARK    1  A    between atoms: O_1  and  C_5
REMARK    2  A    between atoms: C_2  and  C_3
REMARK    3  A    between atoms: C_2  and  C_4
REMARK    4  A    between atoms: C_3  and  C_5
REMARK    5  A    between atoms: C_4  and  C_6
REMARK                            x       y       z     vdW  Elec       q    Type
REMARK                         _______ _______ _______ _____ _____    ______ ____
ROOT
ATOM      1  C   UNL     1       0.903  -4.146  15.504  0.00  0.00    +0.000 C 
ATOM      2  H   UNL     1       0.124  -4.162  14.733  0.00  0.00    +0.000 HD
ATOM      3  H   UNL     1       0.679  -3.305  16.172  0.00  0.00    +0.000 HD
ENDROOT
BRANCH   1   4
ATOM      4  C   UNL     1       2.267  -3.930  14.852  0.00  0.00    +0.000 C 
ATOM      5  H   UNL     1       2.145  -3.652  13.797  0.00  0.00    +0.000 HD
ATOM      6  H   UNL     1       2.836  -4.867  14.850  0.00  0.00    +0.000 HD
BRANCH   4   7
ATOM      7  C   UNL     1       3.069  -2.853  15.569  0.00  0.00    +0.000 C 
ATOM      8  H   UNL     1       3.877  -3.285  16.169  0.00  0.00    +0.000 HD
ATOM      9  H   UNL     1       2.428  -2.259  16.228  0.00  0.00    +0.000 HD
BRANCH   7  10
ATOM     10  O   UNL     1       3.639  -1.983  14.602  0.00  0.00    +0.000 OA
ATOM     11  H   UNL     1       3.324  -2.269  13.727  0.00  0.00    +0.000 HD
ENDBRANCH   7  10
ENDBRANCH   4   7
ENDBRANCH   1   4
BRANCH   1  12
ATOM     12  C   UNL     1       0.868  -5.451  16.298  0.00  0.00    +0.000 C 
ATOM     13  H   UNL     1       1.462  -6.215  15.785  0.00  0.00    +0.000 HD
ATOM     14  H   UNL     1       1.318  -5.299  17.286  0.00  0.00    +0.000 HD
BRANCH  12  15
ATOM     15  C   UNL     1      -0.555  -5.957  16.475  0.00  0.00    +0.000 C 
ATOM     16  H   UNL     1      -1.219  -5.154  16.809  0.00  0.00    +0.000 HD
ATOM     17  H   UNL     1      -0.948  -6.359  15.535  0.00  0.00    +0.000 HD
ATOM     18  H   UNL     1      -0.583  -6.756  17.223  0.00  0.00    +0.000 HD
ENDBRANCH  12  15
ENDBRANCH   1  12
TORSDOF 5
ENDMDL
MODEL 2
REMARK VINA RESULT:    -3.336     19.995     20.839
REMARK INTER + INTRA:          -4.143
REMARK INTER:                  -4.132
REMARK INTRA:                  -0.010
REMARK UNBOUND:                -0.026
REMARK  Name = 6276
REMARK  5 active torsions:
REMARK  status: ('A' for Active; 'I' for Inactive)
REMARK    1  A    between atoms: O_1  and  C_5
REMARK    2  A    between atoms: C_2  and  C_3
REMARK    3  A    between atoms: C_2  and  C_4
REMARK    4  A    between atoms: C_3  and  C_5
REMARK    5  A    between atoms: C_4  and  C_6
REMARK                            x       y       z     vdW  Elec       q    Type
REMARK                         _______ _______ _______ _____ _____    ______ ____
ROOT
ATOM      1  C   UNL     1      11.032  -9.154  -1.712  0.00  0.00    +0.000 C 
ATOM      2  H   UNL     1      10.519  -8.415  -2.339  0.00  0.00    +0.000 HD
ATOM      3  H   UNL     1      11.830  -8.625  -1.175  0.00  0.00    +0.000 HD
ENDROOT
BRANCH   1   4
ATOM      4  C   UNL     1      11.645 -10.239  -2.594  0.00  0.00    +0.000 C 
ATOM      5  H   UNL     1      10.867 -10.724  -3.197  0.00  0.00    +0.000 HD
ATOM      6  H   UNL     1      12.077 -11.032  -1.970  0.00  0.00    +0.000 HD
BRANCH   4   7
ATOM      7  C   UNL     1      12.720  -9.676  -3.513  0.00  0.00    +0.000 C 
ATOM      8  H   UNL     1      12.460  -8.675  -3.872  0.00  0.00    +0.000 HD
ATOM      9  H   UNL     1      12.875 -10.326  -4.380  0.00  0.00    +0.000 HD
BRANCH   7  10
ATOM     10  O   UNL     1      13.942  -9.597  -2.794  0.00  0.00    +0.000 OA
ATOM     11  H   UNL     1      14.424  -8.817  -3.118  0.00  0.00    +0.000 HD
ENDBRANCH   7  10
ENDBRANCH   4   7
ENDBRANCH   1   4
BRANCH   1  12
ATOM     12  C   UNL     1      10.047  -9.746  -0.705  0.00  0.00    +0.000 C 
ATOM     13  H   UNL     1       9.771 -10.762  -1.008  0.00  0.00    +0.000 HD
ATOM     14  H   UNL     1      10.520  -9.820   0.281  0.00  0.00    +0.000 HD
BRANCH  12  15
ATOM     15  C   UNL     1       8.790  -8.898  -0.589  0.00  0.00    +0.000 C 
ATOM     16  H   UNL     1       8.202  -8.940  -1.511  0.00  0.00    +0.000 HD
ATOM     17  H   UNL     1       8.159  -9.243   0.236  0.00  0.00    +0.000 HD
ATOM     18  H   UNL     1       9.055  -7.853  -0.401  0.00  0.00    +0.000 HD
ENDBRANCH  12  15
ENDBRANCH   1  12
TORSDOF 5
ENDMDL
MODEL 3
REMARK VINA RESULT:    -3.326     18.920     19.923
REMARK INTER + INTRA:          -4.129
REMARK INTER:                  -4.059
REMARK INTRA:                  -0.070
REMARK UNBOUND:                -0.026
REMARK  Name = 6276
REMARK  5 active torsions:
REMARK  status: ('A' for Active; 'I' for Inactive)
REMARK    1  A    between atoms: O_1  and  C_5
REMARK    2  A    between atoms: C_2  and  C_3
REMARK    3  A    between atoms: C_2  and  C_4
REMARK    4  A    between atoms: C_3  and  C_5
REMARK    5  A    between atoms: C_4  and  C_6
REMARK                            x       y       z     vdW  Elec       q    Type
REMARK                         _______ _______ _______ _____ _____    ______ ____
ROOT
ATOM      1  C   UNL     1      10.576  -9.115  -1.014  0.00  0.00    +0.000 C 
ATOM      2  H   UNL     1      11.181  -8.848  -0.140  0.00  0.00    +0.000 HD
ATOM      3  H   UNL     1       9.852  -8.304  -1.167  0.00  0.00    +0.000 HD
ENDROOT
BRANCH   1   4
ATOM      4  C   UNL     1       9.831 -10.420  -0.744  0.00  0.00    +0.000 C 
ATOM      5  H   UNL     1      10.212 -10.895   0.168  0.00  0.00    +0.000 HD
ATOM      6  H   UNL     1      10.018 -11.135  -1.555  0.00  0.00    +0.000 HD
BRANCH   4   7
ATOM      7  C   UNL     1       8.332 -10.193  -0.608  0.00  0.00    +0.000 C 
ATOM      8  H   UNL     1       7.933 -10.663   0.298  0.00  0.00    +0.000 HD
ATOM      9  H   UNL     1       7.794 -10.595  -1.472  0.00  0.00    +0.000 HD
BRANCH   7  10
ATOM     10  O   UNL     1       8.082  -8.797  -0.541  0.00  0.00    +0.000 OA
ATOM     11  H   UNL     1       7.127  -8.674  -0.407  0.00  0.00    +0.000 HD
ENDBRANCH   7  10
ENDBRANCH   4   7
ENDBRANCH   1   4
BRANCH   1  12
ATOM     12  C   UNL     1      11.475  -9.233  -2.244  0.00  0.00    +0.000 C 
ATOM     13  H   UNL     1      11.180  -8.490  -2.994  0.00  0.00    +0.000 HD
ATOM     14  H   UNL     1      12.514  -9.019  -1.969  0.00  0.00    +0.000 HD
BRANCH  12  15
ATOM     15  C   UNL     1      11.400 -10.621  -2.858  0.00  0.00    +0.000 C 
ATOM     16  H   UNL     1      11.911 -10.652  -3.825  0.00  0.00    +0.000 HD
ATOM     17  H   UNL     1      11.863 -11.366  -2.202  0.00  0.00    +0.000 HD
ATOM     18  H   UNL     1      10.356 -10.910  -3.016  0.00  0.00    +0.000 HD
ENDBRANCH  12  15
ENDBRANCH   1  12
TORSDOF 5
ENDMDL
MODEL 4
REMARK VINA RESULT:    -3.253      2.753      4.157
REMARK INTER + INTRA:          -4.039
REMARK INTER:                  -4.030
REMARK INTRA:                  -0.010
REMARK UNBOUND:                -0.026
REMARK  Name = 6276
REMARK  5 active torsions:
REMARK  status: ('A' for Active; 'I' for Inactive)
REMARK    1  A    between atoms: O_1  and  C_5
REMARK    2  A    between atoms: C_2  and  C_3
REMARK    3  A    between atoms: C_2  and  C_4
REMARK    4  A    between atoms: C_3  and  C_5
REMARK    5  A    between atoms: C_4  and  C_6
REMARK                            x       y       z     vdW  Elec       q    Type
REMARK                         _______ _______ _______ _____ _____    ______ ____
ROOT
ATOM      1  C   UNL     1       2.275  -4.537  15.297  0.00  0.00    +0.000 C 
ATOM      2  H   UNL     1       3.016  -4.892  14.572  0.00  0.00    +0.000 HD
ATOM      3  H   UNL     1       2.557  -4.946  16.276  0.00  0.00    +0.000 HD
ENDROOT
BRANCH   1   4
ATOM      4  C   UNL     1       0.890  -5.051  14.911  0.00  0.00    +0.000 C 
ATOM      5  H   UNL     1       0.978  -5.945  14.282  0.00  0.00    +0.000 HD
ATOM      6  H   UNL     1       0.368  -4.305  14.299  0.00  0.00    +0.000 HD
BRANCH   4   7
ATOM      7  C   UNL     1       0.048  -5.375  16.137  0.00  0.00    +0.000 C 
ATOM      8  H   UNL     1      -0.515  -4.502  16.482  0.00  0.00    +0.000 HD
ATOM      9  H   UNL     1       0.675  -5.730  16.961  0.00  0.00    +0.000 HD
BRANCH   7  10
ATOM     10  O   UNL     1      -0.871  -6.405  15.804  0.00  0.00    +0.000 OA
ATOM     11  H   UNL     1      -1.700  -6.224  16.278  0.00  0.00    +0.000 HD
ENDBRANCH   7  10
ENDBRANCH   4   7
ENDBRANCH   1   4
BRANCH   1  12
ATOM     12  C   UNL     1       2.304  -3.010  15.356  0.00  0.00    +0.000 C 
ATOM     13  H   UNL     1       1.462  -2.599  14.787  0.00  0.00    +0.000 HD
ATOM     14  H   UNL     1       2.188  -2.674  16.393  0.00  0.00    +0.000 HD
BRANCH  12  15
ATOM     15  C   UNL     1       3.605  -2.456  14.798  0.00  0.00    +0.000 C 
ATOM     16  H   UNL     1       3.413  -1.685  14.045  0.00  0.00    +0.000 HD
ATOM     17  H   UNL     1       4.217  -2.015  15.592  0.00  0.00    +0.000 HD
ATOM     18  H   UNL     1       4.186  -3.255  14.326  0.00  0.00    +0.000 HD
ENDBRANCH  12  15
ENDBRANCH   1  12
TORSDOF 5
ENDMDL
MODEL 5
REMARK VINA RESULT:    -3.069     15.915     16.292
REMARK INTER + INTRA:          -3.813
REMARK INTER:                  -3.767
REMARK INTRA:                  -0.046
REMARK UNBOUND:                -0.026
REMARK  Name = 6276
REMARK  5 active torsions:
REMARK  status: ('A' for Active; 'I' for Inactive)
REMARK    1  A    between atoms: O_1  and  C_5
REMARK    2  A    between atoms: C_2  and  C_3
REMARK    3  A    between atoms: C_2  and  C_4
REMARK    4  A    between atoms: C_3  and  C_5
REMARK    5  A    between atoms: C_4  and  C_6
REMARK                            x       y       z     vdW  Elec       q    Type
REMARK                         _______ _______ _______ _____ _____    ______ ____
ROOT
ATOM      1  C   UNL     1      -8.972   8.088  20.137  0.00  0.00    +0.000 C 
ATOM      2  H   UNL     1      -9.981   7.664  20.087  0.00  0.00    +0.000 HD
ATOM      3  H   UNL     1      -9.055   9.064  20.632  0.00  0.00    +0.000 HD
ENDROOT
BRANCH   1   4
ATOM      4  C   UNL     1      -8.424   8.277  18.724  0.00  0.00    +0.000 C 
ATOM      5  H   UNL     1      -7.806   7.418  18.437  0.00  0.00    +0.000 HD
ATOM      6  H   UNL     1      -7.758   9.149  18.692  0.00  0.00    +0.000 HD
BRANCH   4   7
ATOM      7  C   UNL     1      -9.542   8.458  17.707  0.00  0.00    +0.000 C 
ATOM      8  H   UNL     1      -9.196   8.998  16.819  0.00  0.00    +0.000 HD
ATOM      9  H   UNL     1     -10.382   9.009  18.142  0.00  0.00    +0.000 HD
BRANCH   7  10
ATOM     10  O   UNL     1     -10.010   7.179  17.306  0.00  0.00    +0.000 OA
ATOM     11  H   UNL     1      -9.376   6.823  16.660  0.00  0.00    +0.000 HD
ENDBRANCH   7  10
ENDBRANCH   4   7
ENDBRANCH   1   4
BRANCH   1  12
ATOM     12  C   UNL     1      -8.070   7.173  20.965  0.00  0.00    +0.000 C 
ATOM     13  H   UNL     1      -7.020   7.360  20.714  0.00  0.00    +0.000 HD
ATOM     14  H   UNL     1      -8.193   7.393  22.031  0.00  0.00    +0.000 HD
BRANCH  12  15
ATOM     15  C   UNL     1      -8.390   5.707  20.721  0.00  0.00    +0.000 C 
ATOM     16  H   UNL     1      -9.370   5.444  21.131  0.00  0.00    +0.000 HD
ATOM     17  H   UNL     1      -8.394   5.479  19.650  0.00  0.00    +0.000 HD
ATOM     18  H   UNL     1      -7.639   5.070  21.200  0.00  0.00    +0.000 HD
ENDBRANCH  12  15
ENDBRANCH   1  12
TORSDOF 5
ENDMDL
MODEL 6
REMARK VINA RESULT:    -3.058     25.173     26.488
REMARK INTER + INTRA:          -3.799
REMARK INTER:                  -3.777
REMARK INTRA:                  -0.022
REMARK UNBOUND:                -0.026
REMARK  Name = 6276
REMARK  5 active torsions:
REMARK  status: ('A' for Active; 'I' for Inactive)
REMARK    1  A    between atoms: O_1  and  C_5
REMARK    2  A    between atoms: C_2  and  C_3
REMARK    3  A    between atoms: C_2  and  C_4
REMARK    4  A    between atoms: C_3  and  C_5
REMARK    5  A    between atoms: C_4  and  C_6
REMARK                            x       y       z     vdW  Elec       q    Type
REMARK                         _______ _______ _______ _____ _____    ______ ____
ROOT
ATOM      1  C   UNL     1       8.618  12.078  -3.696  0.00  0.00    +0.000 C 
ATOM      2  H   UNL     1       8.205  11.178  -4.167  0.00  0.00    +0.000 HD
ATOM      3  H   UNL     1       7.882  12.881  -3.834  0.00  0.00    +0.000 HD
ENDROOT
BRANCH   1   4
ATOM      4  C   UNL     1       9.926  12.463  -4.383  0.00  0.00    +0.000 C 
ATOM      5  H   UNL     1      10.741  11.812  -4.042  0.00  0.00    +0.000 HD
ATOM      6  H   UNL     1      10.217  13.481  -4.096  0.00  0.00    +0.000 HD
BRANCH   4   7
ATOM      7  C   UNL     1       9.812  12.379  -5.898  0.00  0.00    +0.000 C 
ATOM      8  H   UNL     1      10.584  11.730  -6.326  0.00  0.00    +0.000 HD
ATOM      9  H   UNL     1       9.901  13.370  -6.354  0.00  0.00    +0.000 HD
BRANCH   7  10
ATOM     10  O   UNL     1       8.538  11.850  -6.235  0.00  0.00    +0.000 OA
ATOM     11  H   UNL     1       8.187  11.403  -5.445  0.00  0.00    +0.000 HD
ENDBRANCH   7  10
ENDBRANCH   4   7
ENDBRANCH   1   4
BRANCH   1  12
ATOM     12  C   UNL     1       8.826  11.829  -2.203  0.00  0.00    +0.000 C 
ATOM     13  H   UNL     1       8.803  10.753  -1.998  0.00  0.00    +0.000 HD
ATOM     14  H   UNL     1       9.812  12.197  -1.897  0.00  0.00    +0.000 HD
BRANCH  12  15
ATOM     15  C   UNL     1       7.759  12.520  -1.369  0.00  0.00    +0.000 C 
ATOM     16  H   UNL     1       7.680  13.580  -1.630  0.00  0.00    +0.000 HD
ATOM     17  H   UNL     1       6.779  12.055  -1.522  0.00  0.00    +0.000 HD
ATOM     18  H   UNL     1       8.005  12.450  -0.305  0.00  0.00    +0.000 HD
ENDBRANCH  12  15
ENDBRANCH   1  12
TORSDOF 5
ENDMDL
MODEL 7
REMARK VINA RESULT:    -3.057      2.344      2.640
REMARK INTER + INTRA:          -3.798
REMARK INTER:                  -3.788
REMARK INTRA:                  -0.009
REMARK UNBOUND:                -0.026
REMARK  Name = 6276
REMARK  5 active torsions:
REMARK  status: ('A' for Active; 'I' for Inactive)
REMARK    1  A    between atoms: O_1  and  C_5
REMARK    2  A    between atoms: C_2  and  C_3
REMARK    3  A    between atoms: C_2  and  C_4
REMARK    4  A    between atoms: C_3  and  C_5
REMARK    5  A    between atoms: C_4  and  C_6
REMARK                            x       y       z     vdW  Elec       q    Type
REMARK                         _______ _______ _______ _____ _____    ______ ____
ROOT
ATOM      1  C   UNL     1       1.735  -5.470  14.225  0.00  0.00    +0.000 C 
ATOM      2  H   UNL     1       1.387  -5.487  13.185  0.00  0.00    +0.000 HD
ATOM      3  H   UNL     1       0.845  -5.522  14.865  0.00  0.00    +0.000 HD
ENDROOT
BRANCH   1   4
ATOM      4  C   UNL     1       2.482  -4.166  14.495  0.00  0.00    +0.000 C 
ATOM      5  H   UNL     1       2.856  -3.740  13.556  0.00  0.00    +0.000 HD
ATOM      6  H   UNL     1       3.370  -4.361  15.109  0.00  0.00    +0.000 HD
BRANCH   4   7
ATOM      7  C   UNL     1       1.597  -3.146  15.197  0.00  0.00    +0.000 C 
ATOM      8  H   UNL     1       1.976  -2.902  16.195  0.00  0.00    +0.000 HD
ATOM      9  H   UNL     1       0.573  -3.518  15.297  0.00  0.00    +0.000 HD
BRANCH   7  10
ATOM     10  O   UNL     1       1.562  -1.957  14.422  0.00  0.00    +0.000 OA
ATOM     11  H   UNL     1       1.538  -1.205  15.038  0.00  0.00    +0.000 HD
ENDBRANCH   7  10
ENDBRANCH   4   7
ENDBRANCH   1   4
BRANCH   1  12
ATOM     12  C   UNL     1       2.624  -6.685  14.489  0.00  0.00    +0.000 C 
ATOM     13  H   UNL     1       3.653  -6.359  14.680  0.00  0.00    +0.000 HD
ATOM     14  H   UNL     1       2.279  -7.211  15.387  0.00  0.00    +0.000 HD
BRANCH  12  15
ATOM     15  C   UNL     1       2.614  -7.649  13.314  0.00  0.00    +0.000 C 
ATOM     16  H   UNL     1       3.327  -7.339  12.545  0.00  0.00    +0.000 HD
ATOM     17  H   UNL     1       2.875  -8.663  13.636  0.00  0.00    +0.000 HD
ATOM     18  H   UNL     1       1.618  -7.684  12.861  0.00  0.00    +0.000 HD
ENDBRANCH  12  15
ENDBRANCH   1  12
TORSDOF 5
ENDMDL
MODEL 8
REMARK VINA RESULT:    -3.034     27.225     27.696
REMARK INTER + INTRA:          -3.769
REMARK INTER:                  -3.713
REMARK INTRA:                  -0.056
REMARK UNBOUND:                -0.026
REMARK  Name = 6276
REMARK  5 active torsions:
REMARK  status: ('A' for Active; 'I' for Inactive)
REMARK    1  A    between atoms: O_1  and  C_5
REMARK    2  A    between atoms: C_2  and  C_3
REMARK    3  A    between atoms: C_2  and  C_4
REMARK    4  A    between atoms: C_3  and  C_5
REMARK    5  A    between atoms: C_4  and  C_6
REMARK                            x       y       z     vdW  Elec       q    Type
REMARK                         _______ _______ _______ _____ _____    ______ ____
ROOT
ATOM      1  C   UNL     1     -13.467   8.038  -3.523  0.00  0.00    +0.000 C 
ATOM      2  H   UNL     1     -13.368   6.948  -3.454  0.00  0.00    +0.000 HD
ATOM      3  H   UNL     1     -12.834   8.368  -4.357  0.00  0.00    +0.000 HD
ENDROOT
BRANCH   1   4
ATOM      4  C   UNL     1     -12.978   8.680  -2.227  0.00  0.00    +0.000 C 
ATOM      5  H   UNL     1     -11.903   8.890  -2.287  0.00  0.00    +0.000 HD
ATOM      6  H   UNL     1     -13.100   7.981  -1.390  0.00  0.00    +0.000 HD
BRANCH   4   7
ATOM      7  C   UNL     1     -13.728   9.969  -1.921  0.00  0.00    +0.000 C 
ATOM      8  H   UNL     1     -14.136   9.967  -0.904  0.00  0.00    +0.000 HD
ATOM      9  H   UNL     1     -14.553  10.120  -2.624  0.00  0.00    +0.000 HD
BRANCH   7  10
ATOM     10  O   UNL     1     -12.832  11.064  -2.047  0.00  0.00    +0.000 OA
ATOM     11  H   UNL     1     -12.549  11.106  -2.976  0.00  0.00    +0.000 HD
ENDBRANCH   7  10
ENDBRANCH   4   7
ENDBRANCH   1   4
BRANCH   1  12
ATOM     12  C   UNL     1     -14.922   8.406  -3.812  0.00  0.00    +0.000 C 
ATOM     13  H   UNL     1     -15.584   7.880  -3.114  0.00  0.00    +0.000 HD
ATOM     14  H   UNL     1     -15.073   9.480  -3.656  0.00  0.00    +0.000 HD
BRANCH  12  15
ATOM     15  C   UNL     1     -15.313   8.052  -5.238  0.00  0.00    +0.000 C 
ATOM     16  H   UNL     1     -15.102   7.000  -5.454  0.00  0.00    +0.000 HD
ATOM     17  H   UNL     1     -16.380   8.230  -5.407  0.00  0.00    +0.000 HD
ATOM     18  H   UNL     1     -14.749   8.665  -5.949  0.00  0.00    +0.000 HD
ENDBRANCH  12  15
ENDBRANCH   1  12
TORSDOF 5
ENDMDL
MODEL 9
REMARK VINA RESULT:    -3.017     19.199     19.809
REMARK INTER + INTRA:          -3.748
REMARK INTER:                  -3.685
REMARK INTRA:                  -0.063
REMARK UNBOUND:                -0.026
REMARK  Name = 6276
REMARK  5 active torsions:
REMARK  status: ('A' for Active; 'I' for Inactive)
REMARK    1  A    between atoms: O_1  and  C_5
REMARK    2  A    between atoms: C_2  and  C_3
REMARK    3  A    between atoms: C_2  and  C_4
REMARK    4  A    between atoms: C_3  and  C_5
REMARK    5  A    between atoms: C_4  and  C_6
REMARK                            x       y       z     vdW  Elec       q    Type
REMARK                         _______ _______ _______ _____ _____    ______ ____
ROOT
ATOM      1  C   UNL     1     -14.019 -15.292   8.434  0.00  0.00    +0.000 C 
ATOM      2  H   UNL     1     -14.813 -15.963   8.784  0.00  0.00    +0.000 HD
ATOM      3  H   UNL     1     -14.459 -14.646   7.663  0.00  0.00    +0.000 HD
ENDROOT
BRANCH   1   4
ATOM      4  C   UNL     1     -12.886 -16.113   7.824  0.00  0.00    +0.000 C 
ATOM      5  H   UNL     1     -12.850 -15.965   6.737  0.00  0.00    +0.000 HD
ATOM      6  H   UNL     1     -13.073 -17.184   7.973  0.00  0.00    +0.000 HD
BRANCH   4   7
ATOM      7  C   UNL     1     -11.538 -15.748   8.429  0.00  0.00    +0.000 C 
ATOM      8  H   UNL     1     -11.631 -14.942   9.164  0.00  0.00    +0.000 HD
ATOM      9  H   UNL     1     -10.832 -15.431   7.655  0.00  0.00    +0.000 HD
BRANCH   7  10
ATOM     10  O   UNL     1     -11.000 -16.892   9.078  0.00  0.00    +0.000 OA
ATOM     11  H   UNL     1     -11.741 -17.377   9.480  0.00  0.00    +0.000 HD
ENDBRANCH   7  10
ENDBRANCH   4   7
ENDBRANCH   1   4
BRANCH   1  12
ATOM     12  C   UNL     1     -13.520 -14.433   9.595  0.00  0.00    +0.000 C 
ATOM     13  H   UNL     1     -12.684 -14.934  10.096  0.00  0.00    +0.000 HD
ATOM     14  H   UNL     1     -13.145 -13.476   9.217  0.00  0.00    +0.000 HD
BRANCH  12  15
ATOM     15  C   UNL     1     -14.624 -14.169  10.607  0.00  0.00    +0.000 C 
ATOM     16  H   UNL     1     -15.581 -13.987  10.106  0.00  0.00    +0.000 HD
ATOM     17  H   UNL     1     -14.748 -15.020  11.284  0.00  0.00    +0.000 HD
ATOM     18  H   UNL     1     -14.383 -13.287  11.209  0.00  0.00    +0.000 HD
ENDBRANCH  12  15
ENDBRANCH   1  12
TORSDOF 5
ENDMDL
MODEL 10
REMARK VINA RESULT:    -2.971     15.791     16.199
REMARK INTER + INTRA:          -3.692
REMARK INTER:                  -3.666
REMARK INTRA:                  -0.026
REMARK UNBOUND:                -0.026
REMARK  Name = 6276
REMARK  5 active torsions:
REMARK  status: ('A' for Active; 'I' for Inactive)
REMARK    1  A    between atoms: O_1  and  C_5
REMARK    2  A    between atoms: C_2  and  C_3
REMARK    3  A    between atoms: C_2  and  C_4
REMARK    4  A    between atoms: C_3  and  C_5
REMARK    5  A    between atoms: C_4  and  C_6
REMARK                            x       y       z     vdW  Elec       q    Type
REMARK                         _______ _______ _______ _____ _____    ______ ____
ROOT
ATOM      1  C   UNL     1      -5.913 -13.703   6.166  0.00  0.00    +0.000 C 
ATOM      2  H   UNL     1      -4.985 -13.530   6.722  0.00  0.00    +0.000 HD
ATOM      3  H   UNL     1      -5.919 -14.759   5.867  0.00  0.00    +0.000 HD
ENDROOT
BRANCH   1   4
ATOM      4  C   UNL     1      -5.936 -12.820   4.919  0.00  0.00    +0.000 C 
ATOM      5  H   UNL     1      -5.330 -13.270   4.123  0.00  0.00    +0.000 HD
ATOM      6  H   UNL     1      -5.472 -11.850   5.136  0.00  0.00    +0.000 HD
BRANCH   4   7
ATOM      7  C   UNL     1      -7.355 -12.600   4.413  0.00  0.00    +0.000 C 
ATOM      8  H   UNL     1      -7.934 -11.970   5.097  0.00  0.00    +0.000 HD
ATOM      9  H   UNL     1      -7.880 -13.551   4.290  0.00  0.00    +0.000 HD
BRANCH   7  10
ATOM     10  O   UNL     1      -7.296 -11.959   3.147  0.00  0.00    +0.000 OA
ATOM     11  H   UNL     1      -6.386 -12.044   2.816  0.00  0.00    +0.000 HD
ENDBRANCH   7  10
ENDBRANCH   4   7
ENDBRANCH   1   4
BRANCH   1  12
ATOM     12  C   UNL     1      -7.114 -13.422   7.068  0.00  0.00    +0.000 C 
ATOM     13  H   UNL     1      -6.775 -12.991   8.016  0.00  0.00    +0.000 HD
ATOM     14  H   UNL     1      -7.773 -12.685   6.594  0.00  0.00    +0.000 HD
BRANCH  12  15
ATOM     15  C   UNL     1      -7.908 -14.688   7.348  0.00  0.00    +0.000 C 
ATOM     16  H   UNL     1      -8.176 -14.757   8.407  0.00  0.00    +0.000 HD
ATOM     17  H   UNL     1      -8.830 -14.712   6.759  0.00  0.00    +0.000 HD
ATOM     18  H   UNL     1      -7.316 -15.571   7.089  0.00  0.00    +0.000 HD
ENDBRANCH  12  15
ENDBRANCH   1  12
TORSDOF 5
ENDMDL
