MODEL 1
REMARK VINA RESULT:    -4.948      0.000      0.000
REMARK INTER + INTRA:          -8.459
REMARK INTER:                  -7.531
REMARK INTRA:                  -0.928
REMARK UNBOUND:                -0.618
REMARK  Name = 22556
REMARK  11 active torsions:
REMARK  status: ('A' for Active; 'I' for Inactive)
REMARK    1  A    between atoms: C_2  and  C_3
REMARK    2  A    between atoms: C_2  and  C_4
REMARK    3  A    between atoms: C_3  and  C_5
REMARK    4  A    between atoms: C_4  and  C_6
REMARK    5  A    between atoms: C_5  and  C_7
REMARK    6  A    between atoms: C_6  and  C_8
REMARK    7  A    between atoms: C_7  and  C_9
REMARK    8  A    between atoms: C_8  and  C_10
REMARK    9  A    between atoms: C_9  and  C_11
REMARK   10  A    between atoms: C_10  and  C_12
REMARK   11  A    between atoms: C_12  and  C_13
REMARK                            x       y       z     vdW  Elec       q    Type
REMARK                         _______ _______ _______ _____ _____    ______ ____
ROOT
ATOM      1  C   UNL     1       8.010 -10.385  -0.263  0.00  0.00    +0.000 C 
ATOM      2  H   UNL     1       7.522 -10.385   0.719  0.00  0.00    +0.000 HD
ATOM      3  H   UNL     1       7.216 -10.444  -1.019  0.00  0.00    +0.000 HD
ENDROOT
BRANCH   1   4
ATOM      4  C   UNL     1       8.803  -9.089  -0.449  0.00  0.00    +0.000 C 
ATOM      5  H   UNL     1       8.607  -8.410   0.390  0.00  0.00    +0.000 HD
ATOM      6  H   UNL     1       8.469  -8.581  -1.361  0.00  0.00    +0.000 HD
BRANCH   4   7
ATOM      7  C   UNL     1      10.306  -9.366  -0.536  0.00  0.00    +0.000 C 
ATOM      8  H   UNL     1      10.795  -9.019   0.383  0.00  0.00    +0.000 HD
ATOM      9  H   UNL     1      10.467 -10.451  -0.589  0.00  0.00    +0.000 HD
BRANCH   7  10
ATOM     10  C   UNL     1      10.978  -8.703  -1.741  0.00  0.00    +0.000 C 
ATOM     11  H   UNL     1      11.483  -7.787  -1.412  0.00  0.00    +0.000 HD
ATOM     12  H   UNL     1      10.203  -8.398  -2.456  0.00  0.00    +0.000 HD
BRANCH  10  13
ATOM     13  C   UNL     1      11.982  -9.611  -2.453  0.00  0.00    +0.000 C 
ATOM     14  H   UNL     1      12.554  -9.028  -3.185  0.00  0.00    +0.000 HD
ATOM     15  H   UNL     1      12.699 -10.014  -1.727  0.00  0.00    +0.000 HD
BRANCH  13  16
ATOM     16  C   UNL     1      11.285 -10.765  -3.157  0.00  0.00    +0.000 C 
ATOM     17  H   UNL     1      10.215 -10.567  -3.268  0.00  0.00    +0.000 HD
ATOM     18  H   UNL     1      11.406 -11.698  -2.597  0.00  0.00    +0.000 HD
ATOM     19  H   UNL     1      11.709 -10.911  -4.155  0.00  0.00    +0.000 HD
ENDBRANCH  13  16
ENDBRANCH  10  13
ENDBRANCH   7  10
ENDBRANCH   4   7
ENDBRANCH   1   4
BRANCH   1  20
ATOM     20  C   UNL     1       8.917 -11.612  -0.384  0.00  0.00    +0.000 C 
ATOM     21  H   UNL     1       9.204 -11.953   0.618  0.00  0.00    +0.000 HD
ATOM     22  H   UNL     1       9.843 -11.324  -0.898  0.00  0.00    +0.000 HD
BRANCH  20  23
ATOM     23  C   UNL     1       8.270 -12.775  -1.143  0.00  0.00    +0.000 C 
ATOM     24  H   UNL     1       9.043 -13.511  -1.399  0.00  0.00    +0.000 HD
ATOM     25  H   UNL     1       7.861 -12.402  -2.091  0.00  0.00    +0.000 HD
BRANCH  23  26
ATOM     26  C   UNL     1       7.159 -13.472  -0.351  0.00  0.00    +0.000 C 
ATOM     27  H   UNL     1       7.117 -13.061   0.665  0.00  0.00    +0.000 HD
ATOM     28  H   UNL     1       7.402 -14.536  -0.248  0.00  0.00    +0.000 HD
BRANCH  26  29
ATOM     29  C   UNL     1       5.791 -13.323  -1.016  0.00  0.00    +0.000 C 
ATOM     30  H   UNL     1       5.285 -14.295  -1.040  0.00  0.00    +0.000 HD
ATOM     31  H   UNL     1       5.920 -12.976  -2.048  0.00  0.00    +0.000 HD
BRANCH  29  33
ATOM     32  O   UNL     1       4.084 -11.612  -0.909  0.00  0.00    +0.000 OA
ATOM     33  C   UNL     1       4.867 -12.345  -0.309  0.00  0.00    +0.000 C 
BRANCH  33  34
ATOM     34  C   UNL     1       4.984 -12.290   1.192  0.00  0.00    +0.000 C 
ATOM     35  H   UNL     1       5.541 -11.395   1.484  0.00  0.00    +0.000 HD
ATOM     36  H   UNL     1       5.523 -13.170   1.554  0.00  0.00    +0.000 HD
ATOM     37  H   UNL     1       3.986 -12.276   1.637  0.00  0.00    +0.000 HD
ENDBRANCH  33  34
ENDBRANCH  29  33
ENDBRANCH  26  29
ENDBRANCH  23  26
ENDBRANCH  20  23
ENDBRANCH   1  20
TORSDOF 11
ENDMDL
MODEL 2
REMARK VINA RESULT:    -4.726     18.748     20.782
REMARK INTER + INTRA:          -8.106
REMARK INTER:                  -7.748
REMARK INTRA:                  -0.358
REMARK UNBOUND:                -0.618
REMARK  Name = 22556
REMARK  11 active torsions:
REMARK  status: ('A' for Active; 'I' for Inactive)
REMARK    1  A    between atoms: C_2  and  C_3
REMARK    2  A    between atoms: C_2  and  C_4
REMARK    3  A    between atoms: C_3  and  C_5
REMARK    4  A    between atoms: C_4  and  C_6
REMARK    5  A    between atoms: C_5  and  C_7
REMARK    6  A    between atoms: C_6  and  C_8
REMARK    7  A    between atoms: C_7  and  C_9
REMARK    8  A    between atoms: C_8  and  C_10
REMARK    9  A    between atoms: C_9  and  C_11
REMARK   10  A    between atoms: C_10  and  C_12
REMARK   11  A    between atoms: C_12  and  C_13
REMARK                            x       y       z     vdW  Elec       q    Type
REMARK                         _______ _______ _______ _____ _____    ______ ____
ROOT
ATOM      1  C   UNL     1      -0.128  -7.674  18.383  0.00  0.00    +0.000 C 
ATOM      2  H   UNL     1      -0.950  -7.286  18.995  0.00  0.00    +0.000 HD
ATOM      3  H   UNL     1       0.771  -7.102  18.647  0.00  0.00    +0.000 HD
ENDROOT
BRANCH   1   4
ATOM      4  C   UNL     1       0.095  -9.156  18.694  0.00  0.00    +0.000 C 
ATOM      5  H   UNL     1      -0.433  -9.426  19.616  0.00  0.00    +0.000 HD
ATOM      6  H   UNL     1       1.163  -9.339  18.866  0.00  0.00    +0.000 HD
BRANCH   4   7
ATOM      7  C   UNL     1      -0.399 -10.044  17.549  0.00  0.00    +0.000 C 
ATOM      8  H   UNL     1      -1.189  -9.521  16.997  0.00  0.00    +0.000 HD
ATOM      9  H   UNL     1       0.425 -10.208  16.842  0.00  0.00    +0.000 HD
BRANCH   7  10
ATOM     10  C   UNL     1      -0.931 -11.401  18.017  0.00  0.00    +0.000 C 
ATOM     11  H   UNL     1      -1.424 -11.278  18.990  0.00  0.00    +0.000 HD
ATOM     12  H   UNL     1      -0.083 -12.079  18.177  0.00  0.00    +0.000 HD
BRANCH  10  13
ATOM     13  C   UNL     1      -1.905 -12.045  17.030  0.00  0.00    +0.000 C 
ATOM     14  H   UNL     1      -1.999 -11.416  16.138  0.00  0.00    +0.000 HD
ATOM     15  H   UNL     1      -1.516 -13.017  16.704  0.00  0.00    +0.000 HD
BRANCH  13  16
ATOM     16  C   UNL     1      -3.278 -12.244  17.656  0.00  0.00    +0.000 C 
ATOM     17  H   UNL     1      -3.471 -11.489  18.424  0.00  0.00    +0.000 HD
ATOM     18  H   UNL     1      -3.359 -13.233  18.118  0.00  0.00    +0.000 HD
ATOM     19  H   UNL     1      -4.058 -12.161  16.893  0.00  0.00    +0.000 HD
ENDBRANCH  13  16
ENDBRANCH  10  13
ENDBRANCH   7  10
ENDBRANCH   4   7
ENDBRANCH   1   4
BRANCH   1  20
ATOM     20  C   UNL     1      -0.447  -7.462  16.901  0.00  0.00    +0.000 C 
ATOM     21  H   UNL     1      -1.428  -7.899  16.674  0.00  0.00    +0.000 HD
ATOM     22  H   UNL     1       0.289  -8.003  16.294  0.00  0.00    +0.000 HD
BRANCH  20  23
ATOM     23  C   UNL     1      -0.447  -5.988  16.484  0.00  0.00    +0.000 C 
ATOM     24  H   UNL     1      -0.330  -5.362  17.377  0.00  0.00    +0.000 HD
ATOM     25  H   UNL     1      -1.423  -5.739  16.048  0.00  0.00    +0.000 HD
BRANCH  23  26
ATOM     26  C   UNL     1       0.659  -5.641  15.481  0.00  0.00    +0.000 C 
ATOM     27  H   UNL     1       0.360  -5.965  14.477  0.00  0.00    +0.000 HD
ATOM     28  H   UNL     1       1.565  -6.203  15.734  0.00  0.00    +0.000 HD
BRANCH  26  29
ATOM     29  C   UNL     1       0.974  -4.146  15.460  0.00  0.00    +0.000 C 
ATOM     30  H   UNL     1       0.393  -3.636  16.238  0.00  0.00    +0.000 HD
ATOM     31  H   UNL     1       0.693  -3.724  14.488  0.00  0.00    +0.000 HD
BRANCH  29  33
ATOM     32  O   UNL     1       3.099  -4.346  16.599  0.00  0.00    +0.000 OA
ATOM     33  C   UNL     1       2.439  -3.823  15.702  0.00  0.00    +0.000 C 
BRANCH  33  34
ATOM     34  C   UNL     1       3.049  -2.787  14.795  0.00  0.00    +0.000 C 
ATOM     35  H   UNL     1       3.802  -3.256  14.155  0.00  0.00    +0.000 HD
ATOM     36  H   UNL     1       3.534  -2.011  15.393  0.00  0.00    +0.000 HD
ATOM     37  H   UNL     1       2.266  -2.329  14.184  0.00  0.00    +0.000 HD
ENDBRANCH  33  34
ENDBRANCH  29  33
ENDBRANCH  26  29
ENDBRANCH  23  26
ENDBRANCH  20  23
ENDBRANCH   1  20
TORSDOF 11
ENDMDL
MODEL 3
REMARK VINA RESULT:    -4.683     15.980     18.849
REMARK INTER + INTRA:          -8.039
REMARK INTER:                  -6.969
REMARK INTRA:                  -1.069
REMARK UNBOUND:                -0.618
REMARK  Name = 22556
REMARK  11 active torsions:
REMARK  status: ('A' for Active; 'I' for Inactive)
REMARK    1  A    between atoms: C_2  and  C_3
REMARK    2  A    between atoms: C_2  and  C_4
REMARK    3  A    between atoms: C_3  and  C_5
REMARK    4  A    between atoms: C_4  and  C_6
REMARK    5  A    between atoms: C_5  and  C_7
REMARK    6  A    between atoms: C_6  and  C_8
REMARK    7  A    between atoms: C_7  and  C_9
REMARK    8  A    between atoms: C_8  and  C_10
REMARK    9  A    between atoms: C_9  and  C_11
REMARK   10  A    between atoms: C_10  and  C_12
REMARK   11  A    between atoms: C_12  and  C_13
REMARK                            x       y       z     vdW  Elec       q    Type
REMARK                         _______ _______ _______ _____ _____    ______ ____
ROOT
ATOM      1  C   UNL     1       0.516  -4.810  15.990  0.00  0.00    +0.000 C 
ATOM      2  H   UNL     1       0.144  -3.785  15.876  0.00  0.00    +0.000 HD
ATOM      3  H   UNL     1       1.354  -4.773  16.697  0.00  0.00    +0.000 HD
ENDROOT
BRANCH   1   4
ATOM      4  C   UNL     1      -0.592  -5.705  16.552  0.00  0.00    +0.000 C 
ATOM      5  H   UNL     1      -1.572  -5.261  16.340  0.00  0.00    +0.000 HD
ATOM      6  H   UNL     1      -0.495  -5.770  17.642  0.00  0.00    +0.000 HD
BRANCH   4   7
ATOM      7  C   UNL     1      -0.530  -7.110  15.948  0.00  0.00    +0.000 C 
ATOM      8  H   UNL     1      -1.525  -7.393  15.581  0.00  0.00    +0.000 HD
ATOM      9  H   UNL     1       0.136  -7.095  15.075  0.00  0.00    +0.000 HD
BRANCH   7  10
ATOM     10  C   UNL     1      -0.039  -8.175  16.932  0.00  0.00    +0.000 C 
ATOM     11  H   UNL     1       0.994  -8.448  16.681  0.00  0.00    +0.000 HD
ATOM     12  H   UNL     1      -0.644  -9.081  16.805  0.00  0.00    +0.000 HD
BRANCH  10  13
ATOM     13  C   UNL     1      -0.106  -7.730  18.393  0.00  0.00    +0.000 C 
ATOM     14  H   UNL     1      -0.644  -6.777  18.466  0.00  0.00    +0.000 HD
ATOM     15  H   UNL     1      -0.668  -8.466  18.981  0.00  0.00    +0.000 HD
BRANCH  13  16
ATOM     16  C   UNL     1       1.284  -7.573  18.990  0.00  0.00    +0.000 C 
ATOM     17  H   UNL     1       1.312  -7.946  20.019  0.00  0.00    +0.000 HD
ATOM     18  H   UNL     1       1.593  -6.523  18.996  0.00  0.00    +0.000 HD
ATOM     19  H   UNL     1       2.014  -8.139  18.404  0.00  0.00    +0.000 HD
ENDBRANCH  13  16
ENDBRANCH  10  13
ENDBRANCH   7  10
ENDBRANCH   4   7
ENDBRANCH   1   4
BRANCH   1  20
ATOM     20  C   UNL     1       1.013  -5.328  14.639  0.00  0.00    +0.000 C 
ATOM     21  H   UNL     1       0.526  -4.767  13.832  0.00  0.00    +0.000 HD
ATOM     22  H   UNL     1       0.711  -6.376  14.523  0.00  0.00    +0.000 HD
BRANCH  20  23
ATOM     23  C   UNL     1       2.533  -5.228  14.471  0.00  0.00    +0.000 C 
ATOM     24  H   UNL     1       2.874  -4.261  14.859  0.00  0.00    +0.000 HD
ATOM     25  H   UNL     1       2.777  -5.244  13.401  0.00  0.00    +0.000 HD
BRANCH  23  26
ATOM     26  C   UNL     1       3.297  -6.350  15.183  0.00  0.00    +0.000 C 
ATOM     27  H   UNL     1       3.031  -6.359  16.247  0.00  0.00    +0.000 HD
ATOM     28  H   UNL     1       4.373  -6.142  15.132  0.00  0.00    +0.000 HD
BRANCH  26  29
ATOM     29  C   UNL     1       3.013  -7.722  14.575  0.00  0.00    +0.000 C 
ATOM     30  H   UNL     1       2.030  -7.712  14.087  0.00  0.00    +0.000 HD
ATOM     31  H   UNL     1       2.997  -8.479  15.367  0.00  0.00    +0.000 HD
BRANCH  29  33
ATOM     32  O   UNL     1       3.733  -8.816  12.541  0.00  0.00    +0.000 OA
ATOM     33  C   UNL     1       4.032  -8.157  13.534  0.00  0.00    +0.000 C 
BRANCH  33  34
ATOM     34  C   UNL     1       5.461  -7.764  13.802  0.00  0.00    +0.000 C 
ATOM     35  H   UNL     1       5.787  -8.190  14.755  0.00  0.00    +0.000 HD
ATOM     36  H   UNL     1       5.541  -6.675  13.861  0.00  0.00    +0.000 HD
ATOM     37  H   UNL     1       6.098  -8.124  12.990  0.00  0.00    +0.000 HD
ENDBRANCH  33  34
ENDBRANCH  29  33
ENDBRANCH  26  29
ENDBRANCH  23  26
ENDBRANCH  20  23
ENDBRANCH   1  20
TORSDOF 11
ENDMDL
MODEL 4
REMARK VINA RESULT:    -4.639     18.249     20.216
REMARK INTER + INTRA:          -7.968
REMARK INTER:                  -7.384
REMARK INTRA:                  -0.585
REMARK UNBOUND:                -0.618
REMARK  Name = 22556
REMARK  11 active torsions:
REMARK  status: ('A' for Active; 'I' for Inactive)
REMARK    1  A    between atoms: C_2  and  C_3
REMARK    2  A    between atoms: C_2  and  C_4
REMARK    3  A    between atoms: C_3  and  C_5
REMARK    4  A    between atoms: C_4  and  C_6
REMARK    5  A    between atoms: C_5  and  C_7
REMARK    6  A    between atoms: C_6  and  C_8
REMARK    7  A    between atoms: C_7  and  C_9
REMARK    8  A    between atoms: C_8  and  C_10
REMARK    9  A    between atoms: C_9  and  C_11
REMARK   10  A    between atoms: C_10  and  C_12
REMARK   11  A    between atoms: C_12  and  C_13
REMARK                            x       y       z     vdW  Elec       q    Type
REMARK                         _______ _______ _______ _____ _____    ______ ____
ROOT
ATOM      1  C   UNL     1       0.651  -9.583  17.674  0.00  0.00    +0.000 C 
ATOM      2  H   UNL     1       0.881  -9.775  18.729  0.00  0.00    +0.000 HD
ATOM      3  H   UNL     1       1.334 -10.200  17.077  0.00  0.00    +0.000 HD
ENDROOT
BRANCH   1   4
ATOM      4  C   UNL     1      -0.797  -9.983  17.378  0.00  0.00    +0.000 C 
ATOM      5  H   UNL     1      -1.029  -9.785  16.325  0.00  0.00    +0.000 HD
ATOM      6  H   UNL     1      -1.478  -9.372  17.981  0.00  0.00    +0.000 HD
BRANCH   4   7
ATOM      7  C   UNL     1      -1.035 -11.465  17.679  0.00  0.00    +0.000 C 
ATOM      8  H   UNL     1      -0.261 -12.066  17.186  0.00  0.00    +0.000 HD
ATOM      9  H   UNL     1      -0.925 -11.633  18.758  0.00  0.00    +0.000 HD
BRANCH   7  10
ATOM     10  C   UNL     1      -2.413 -11.963  17.235  0.00  0.00    +0.000 C 
ATOM     11  H   UNL     1      -2.980 -11.123  16.814  0.00  0.00    +0.000 HD
ATOM     12  H   UNL     1      -2.967 -12.306  18.118  0.00  0.00    +0.000 HD
BRANCH  10  13
ATOM     13  C   UNL     1      -2.349 -13.098  16.213  0.00  0.00    +0.000 C 
ATOM     14  H   UNL     1      -2.996 -13.923  16.534  0.00  0.00    +0.000 HD
ATOM     15  H   UNL     1      -2.726 -12.748  15.244  0.00  0.00    +0.000 HD
BRANCH  13  16
ATOM     16  C   UNL     1      -0.927 -13.608  16.038  0.00  0.00    +0.000 C 
ATOM     17  H   UNL     1      -0.788 -14.047  15.045  0.00  0.00    +0.000 HD
ATOM     18  H   UNL     1      -0.688 -14.369  16.787  0.00  0.00    +0.000 HD
ATOM     19  H   UNL     1      -0.213 -12.785  16.149  0.00  0.00    +0.000 HD
ENDBRANCH  13  16
ENDBRANCH  10  13
ENDBRANCH   7  10
ENDBRANCH   4   7
ENDBRANCH   1   4
BRANCH   1  20
ATOM     20  C   UNL     1       0.893  -8.105  17.358  0.00  0.00    +0.000 C 
ATOM     21  H   UNL     1       1.253  -8.009  16.326  0.00  0.00    +0.000 HD
ATOM     22  H   UNL     1       1.690  -7.725  18.008  0.00  0.00    +0.000 HD
BRANCH  20  23
ATOM     23  C   UNL     1      -0.353  -7.232  17.538  0.00  0.00    +0.000 C 
ATOM     24  H   UNL     1      -0.373  -6.842  18.563  0.00  0.00    +0.000 HD
ATOM     25  H   UNL     1      -1.248  -7.856  17.419  0.00  0.00    +0.000 HD
BRANCH  23  26
ATOM     26  C   UNL     1      -0.419  -6.059  16.555  0.00  0.00    +0.000 C 
ATOM     27  H   UNL     1       0.071  -5.182  16.995  0.00  0.00    +0.000 HD
ATOM     28  H   UNL     1      -1.468  -5.782  16.393  0.00  0.00    +0.000 HD
BRANCH  26  29
ATOM     29  C   UNL     1       0.236  -6.387  15.214  0.00  0.00    +0.000 C 
ATOM     30  H   UNL     1      -0.538  -6.535  14.452  0.00  0.00    +0.000 HD
ATOM     31  H   UNL     1       0.813  -7.315  15.304  0.00  0.00    +0.000 HD
BRANCH  29  33
ATOM     32  O   UNL     1       1.943  -5.474  13.762  0.00  0.00    +0.000 OA
ATOM     33  C   UNL     1       1.174  -5.304  14.707  0.00  0.00    +0.000 C 
BRANCH  33  34
ATOM     34  C   UNL     1       1.142  -3.996  15.453  0.00  0.00    +0.000 C 
ATOM     35  H   UNL     1       1.299  -3.170  14.754  0.00  0.00    +0.000 HD
ATOM     36  H   UNL     1       1.940  -3.977  16.201  0.00  0.00    +0.000 HD
ATOM     37  H   UNL     1       0.179  -3.886  15.958  0.00  0.00    +0.000 HD
ENDBRANCH  33  34
ENDBRANCH  29  33
ENDBRANCH  26  29
ENDBRANCH  23  26
ENDBRANCH  20  23
ENDBRANCH   1  20
TORSDOF 11
ENDMDL
MODEL 5
REMARK VINA RESULT:    -4.625     16.751     19.614
REMARK INTER + INTRA:          -7.946
REMARK INTER:                  -6.755
REMARK INTRA:                  -1.191
REMARK UNBOUND:                -0.618
REMARK  Name = 22556
REMARK  11 active torsions:
REMARK  status: ('A' for Active; 'I' for Inactive)
REMARK    1  A    between atoms: C_2  and  C_3
REMARK    2  A    between atoms: C_2  and  C_4
REMARK    3  A    between atoms: C_3  and  C_5
REMARK    4  A    between atoms: C_4  and  C_6
REMARK    5  A    between atoms: C_5  and  C_7
REMARK    6  A    between atoms: C_6  and  C_8
REMARK    7  A    between atoms: C_7  and  C_9
REMARK    8  A    between atoms: C_8  and  C_10
REMARK    9  A    between atoms: C_9  and  C_11
REMARK   10  A    between atoms: C_10  and  C_12
REMARK   11  A    between atoms: C_12  and  C_13
REMARK                            x       y       z     vdW  Elec       q    Type
REMARK                         _______ _______ _______ _____ _____    ______ ____
ROOT
ATOM      1  C   UNL     1       0.198  -5.271  16.299  0.00  0.00    +0.000 C 
ATOM      2  H   UNL     1      -0.612  -4.669  16.727  0.00  0.00    +0.000 HD
ATOM      3  H   UNL     1       0.888  -5.512  17.118  0.00  0.00    +0.000 HD
ENDROOT
BRANCH   1   4
ATOM      4  C   UNL     1      -0.371  -6.563  15.708  0.00  0.00    +0.000 C 
ATOM      5  H   UNL     1       0.079  -6.753  14.727  0.00  0.00    +0.000 HD
ATOM      6  H   UNL     1      -1.451  -6.451  15.553  0.00  0.00    +0.000 HD
BRANCH   4   7
ATOM      7  C   UNL     1      -0.106  -7.757  16.627  0.00  0.00    +0.000 C 
ATOM      8  H   UNL     1      -1.006  -8.383  16.682  0.00  0.00    +0.000 HD
ATOM      9  H   UNL     1       0.685  -8.379  16.187  0.00  0.00    +0.000 HD
BRANCH   7  10
ATOM     10  C   UNL     1       0.308  -7.354  18.045  0.00  0.00    +0.000 C 
ATOM     11  H   UNL     1      -0.263  -6.467  18.348  0.00  0.00    +0.000 HD
ATOM     12  H   UNL     1       1.366  -7.060  18.035  0.00  0.00    +0.000 HD
BRANCH  10  13
ATOM     13  C   UNL     1       0.109  -8.465  19.076  0.00  0.00    +0.000 C 
ATOM     14  H   UNL     1       0.987  -8.527  19.729  0.00  0.00    +0.000 HD
ATOM     15  H   UNL     1      -0.753  -8.232  19.713  0.00  0.00    +0.000 HD
BRANCH  13  16
ATOM     16  C   UNL     1      -0.118  -9.811  18.404  0.00  0.00    +0.000 C 
ATOM     17  H   UNL     1       0.723 -10.070  17.754  0.00  0.00    +0.000 HD
ATOM     18  H   UNL     1      -1.030  -9.799  17.799  0.00  0.00    +0.000 HD
ATOM     19  H   UNL     1      -0.221 -10.598  19.158  0.00  0.00    +0.000 HD
ENDBRANCH  13  16
ENDBRANCH  10  13
ENDBRANCH   7  10
ENDBRANCH   4   7
ENDBRANCH   1   4
BRANCH   1  20
ATOM     20  C   UNL     1       0.938  -4.454  15.237  0.00  0.00    +0.000 C 
ATOM     21  H   UNL     1       0.318  -3.599  14.939  0.00  0.00    +0.000 HD
ATOM     22  H   UNL     1       1.076  -5.072  14.341  0.00  0.00    +0.000 HD
BRANCH  20  23
ATOM     23  C   UNL     1       2.304  -3.943  15.704  0.00  0.00    +0.000 C 
ATOM     24  H   UNL     1       2.157  -3.193  16.492  0.00  0.00    +0.000 HD
ATOM     25  H   UNL     1       2.800  -3.431  14.869  0.00  0.00    +0.000 HD
BRANCH  23  26
ATOM     26  C   UNL     1       3.219  -5.052  16.234  0.00  0.00    +0.000 C 
ATOM     27  H   UNL     1       2.648  -5.716  16.894  0.00  0.00    +0.000 HD
ATOM     28  H   UNL     1       4.009  -4.605  16.848  0.00  0.00    +0.000 HD
BRANCH  26  29
ATOM     29  C   UNL     1       3.847  -5.872  15.108  0.00  0.00    +0.000 C 
ATOM     30  H   UNL     1       4.919  -6.003  15.302  0.00  0.00    +0.000 HD
ATOM     31  H   UNL     1       3.731  -5.341  14.157  0.00  0.00    +0.000 HD
BRANCH  29  33
ATOM     32  O   UNL     1       3.311  -8.123  15.816  0.00  0.00    +0.000 OA
ATOM     33  C   UNL     1       3.242  -7.257  14.945  0.00  0.00    +0.000 C 
BRANCH  33  34
ATOM     34  C   UNL     1       2.570  -7.536  13.627  0.00  0.00    +0.000 C 
ATOM     35  H   UNL     1       1.498  -7.336  13.711  0.00  0.00    +0.000 HD
ATOM     36  H   UNL     1       2.709  -8.586  13.356  0.00  0.00    +0.000 HD
ATOM     37  H   UNL     1       3.012  -6.906  12.850  0.00  0.00    +0.000 HD
ENDBRANCH  33  34
ENDBRANCH  29  33
ENDBRANCH  26  29
ENDBRANCH  23  26
ENDBRANCH  20  23
ENDBRANCH   1  20
TORSDOF 11
ENDMDL
MODEL 6
REMARK VINA RESULT:    -4.612     17.764     19.885
REMARK INTER + INTRA:          -7.926
REMARK INTER:                  -7.195
REMARK INTRA:                  -0.730
REMARK UNBOUND:                -0.618
REMARK  Name = 22556
REMARK  11 active torsions:
REMARK  status: ('A' for Active; 'I' for Inactive)
REMARK    1  A    between atoms: C_2  and  C_3
REMARK    2  A    between atoms: C_2  and  C_4
REMARK    3  A    between atoms: C_3  and  C_5
REMARK    4  A    between atoms: C_4  and  C_6
REMARK    5  A    between atoms: C_5  and  C_7
REMARK    6  A    between atoms: C_6  and  C_8
REMARK    7  A    between atoms: C_7  and  C_9
REMARK    8  A    between atoms: C_8  and  C_10
REMARK    9  A    between atoms: C_9  and  C_11
REMARK   10  A    between atoms: C_10  and  C_12
REMARK   11  A    between atoms: C_12  and  C_13
REMARK                            x       y       z     vdW  Elec       q    Type
REMARK                         _______ _______ _______ _____ _____    ______ ____
ROOT
ATOM      1  C   UNL     1       0.454  -5.694  15.356  0.00  0.00    +0.000 C 
ATOM      2  H   UNL     1      -0.262  -5.387  14.584  0.00  0.00    +0.000 HD
ATOM      3  H   UNL     1       1.098  -4.829  15.562  0.00  0.00    +0.000 HD
ENDROOT
BRANCH   1   4
ATOM      4  C   UNL     1      -0.295  -6.093  16.630  0.00  0.00    +0.000 C 
ATOM      5  H   UNL     1      -1.202  -5.485  16.733  0.00  0.00    +0.000 HD
ATOM      6  H   UNL     1       0.333  -5.889  17.505  0.00  0.00    +0.000 HD
BRANCH   4   7
ATOM      7  C   UNL     1      -0.678  -7.575  16.607  0.00  0.00    +0.000 C 
ATOM      8  H   UNL     1      -1.754  -7.676  16.790  0.00  0.00    +0.000 HD
ATOM      9  H   UNL     1      -0.489  -7.978  15.603  0.00  0.00    +0.000 HD
BRANCH   7  10
ATOM     10  C   UNL     1       0.085  -8.416  17.633  0.00  0.00    +0.000 C 
ATOM     11  H   UNL     1       0.883  -8.971  17.123  0.00  0.00    +0.000 HD
ATOM     12  H   UNL     1      -0.598  -9.164  18.057  0.00  0.00    +0.000 HD
BRANCH  10  13
ATOM     13  C   UNL     1       0.688  -7.590  18.770  0.00  0.00    +0.000 C 
ATOM     14  H   UNL     1       1.765  -7.783  18.838  0.00  0.00    +0.000 HD
ATOM     15  H   UNL     1       0.562  -6.521  18.560  0.00  0.00    +0.000 HD
BRANCH  13  16
ATOM     16  C   UNL     1       0.030  -7.916  20.102  0.00  0.00    +0.000 C 
ATOM     17  H   UNL     1       0.783  -8.117  20.872  0.00  0.00    +0.000 HD
ATOM     18  H   UNL     1      -0.617  -8.795  20.016  0.00  0.00    +0.000 HD
ATOM     19  H   UNL     1      -0.584  -7.074  20.438  0.00  0.00    +0.000 HD
ENDBRANCH  13  16
ENDBRANCH  10  13
ENDBRANCH   7  10
ENDBRANCH   4   7
ENDBRANCH   1   4
BRANCH   1  20
ATOM     20  C   UNL     1       1.308  -6.850  14.831  0.00  0.00    +0.000 C 
ATOM     21  H   UNL     1       1.128  -6.977  13.756  0.00  0.00    +0.000 HD
ATOM     22  H   UNL     1       0.991  -7.780  15.317  0.00  0.00    +0.000 HD
BRANCH  20  23
ATOM     23  C   UNL     1       2.809  -6.654  15.067  0.00  0.00    +0.000 C 
ATOM     24  H   UNL     1       3.322  -6.610  14.098  0.00  0.00    +0.000 HD
ATOM     25  H   UNL     1       3.206  -7.530  15.596  0.00  0.00    +0.000 HD
BRANCH  23  26
ATOM     26  C   UNL     1       3.138  -5.387  15.864  0.00  0.00    +0.000 C 
ATOM     27  H   UNL     1       3.541  -5.665  16.846  0.00  0.00    +0.000 HD
ATOM     28  H   UNL     1       2.213  -4.829  16.053  0.00  0.00    +0.000 HD
BRANCH  26  29
ATOM     29  C   UNL     1       4.139  -4.489  15.139  0.00  0.00    +0.000 C 
ATOM     30  H   UNL     1       4.400  -4.934  14.172  0.00  0.00    +0.000 HD
ATOM     31  H   UNL     1       5.053  -4.400  15.736  0.00  0.00    +0.000 HD
BRANCH  29  33
ATOM     32  O   UNL     1       4.318  -2.200  14.377  0.00  0.00    +0.000 OA
ATOM     33  C   UNL     1       3.621  -3.085  14.869  0.00  0.00    +0.000 C 
BRANCH  33  34
ATOM     34  C   UNL     1       2.196  -2.815  15.273  0.00  0.00    +0.000 C 
ATOM     35  H   UNL     1       2.080  -2.989  16.346  0.00  0.00    +0.000 HD
ATOM     36  H   UNL     1       1.524  -3.490  14.735  0.00  0.00    +0.000 HD
ATOM     37  H   UNL     1       1.935  -1.782  15.028  0.00  0.00    +0.000 HD
ENDBRANCH  33  34
ENDBRANCH  29  33
ENDBRANCH  26  29
ENDBRANCH  23  26
ENDBRANCH  20  23
ENDBRANCH   1  20
TORSDOF 11
ENDMDL
MODEL 7
REMARK VINA RESULT:    -4.531     15.998     18.513
REMARK INTER + INTRA:          -7.798
REMARK INTER:                  -6.493
REMARK INTRA:                  -1.305
REMARK UNBOUND:                -0.618
REMARK  Name = 22556
REMARK  11 active torsions:
REMARK  status: ('A' for Active; 'I' for Inactive)
REMARK    1  A    between atoms: C_2  and  C_3
REMARK    2  A    between atoms: C_2  and  C_4
REMARK    3  A    between atoms: C_3  and  C_5
REMARK    4  A    between atoms: C_4  and  C_6
REMARK    5  A    between atoms: C_5  and  C_7
REMARK    6  A    between atoms: C_6  and  C_8
REMARK    7  A    between atoms: C_7  and  C_9
REMARK    8  A    between atoms: C_8  and  C_10
REMARK    9  A    between atoms: C_9  and  C_11
REMARK   10  A    between atoms: C_10  and  C_12
REMARK   11  A    between atoms: C_12  and  C_13
REMARK                            x       y       z     vdW  Elec       q    Type
REMARK                         _______ _______ _______ _____ _____    ______ ____
ROOT
ATOM      1  C   UNL     1      -0.266  -7.011  17.041  0.00  0.00    +0.000 C 
ATOM      2  H   UNL     1       0.079  -6.408  17.889  0.00  0.00    +0.000 HD
ATOM      3  H   UNL     1      -1.336  -7.199  17.192  0.00  0.00    +0.000 HD
ENDROOT
BRANCH   1   4
ATOM      4  C   UNL     1      -0.058  -6.238  15.736  0.00  0.00    +0.000 C 
ATOM      5  H   UNL     1      -1.012  -6.144  15.204  0.00  0.00    +0.000 HD
ATOM      6  H   UNL     1       0.624  -6.795  15.083  0.00  0.00    +0.000 HD
BRANCH   4   7
ATOM      7  C   UNL     1       0.513  -4.843  16.003  0.00  0.00    +0.000 C 
ATOM      8  H   UNL     1      -0.306  -4.114  16.036  0.00  0.00    +0.000 HD
ATOM      9  H   UNL     1       0.985  -4.833  16.995  0.00  0.00    +0.000 HD
BRANCH   7  10
ATOM     10  C   UNL     1       1.539  -4.395  14.959  0.00  0.00    +0.000 C 
ATOM     11  H   UNL     1       1.118  -3.570  14.371  0.00  0.00    +0.000 HD
ATOM     12  H   UNL     1       1.717  -5.222  14.259  0.00  0.00    +0.000 HD
BRANCH  10  13
ATOM     13  C   UNL     1       2.874  -3.959  15.565  0.00  0.00    +0.000 C 
ATOM     14  H   UNL     1       3.678  -4.103  14.834  0.00  0.00    +0.000 HD
ATOM     15  H   UNL     1       2.841  -2.890  15.807  0.00  0.00    +0.000 HD
BRANCH  13  16
ATOM     16  C   UNL     1       3.192  -4.745  16.829  0.00  0.00    +0.000 C 
ATOM     17  H   UNL     1       2.383  -5.442  17.070  0.00  0.00    +0.000 HD
ATOM     18  H   UNL     1       3.335  -4.075  17.682  0.00  0.00    +0.000 HD
ATOM     19  H   UNL     1       4.111  -5.324  16.693  0.00  0.00    +0.000 HD
ENDBRANCH  13  16
ENDBRANCH  10  13
ENDBRANCH   7  10
ENDBRANCH   4   7
ENDBRANCH   1   4
BRANCH   1  20
ATOM     20  C   UNL     1       0.486  -8.344  17.021  0.00  0.00    +0.000 C 
ATOM     21  H   UNL     1       0.345  -8.826  16.046  0.00  0.00    +0.000 HD
ATOM     22  H   UNL     1       0.050  -9.013  17.772  0.00  0.00    +0.000 HD
BRANCH  20  23
ATOM     23  C   UNL     1       1.986  -8.201  17.296  0.00  0.00    +0.000 C 
ATOM     24  H   UNL     1       2.195  -8.523  18.324  0.00  0.00    +0.000 HD
ATOM     25  H   UNL     1       2.263  -7.140  17.235  0.00  0.00    +0.000 HD
BRANCH  23  26
ATOM     26  C   UNL     1       2.861  -9.009  16.332  0.00  0.00    +0.000 C 
ATOM     27  H   UNL     1       2.223  -9.629  15.689  0.00  0.00    +0.000 HD
ATOM     28  H   UNL     1       3.489  -9.700  16.907  0.00  0.00    +0.000 HD
BRANCH  26  29
ATOM     29  C   UNL     1       3.745  -8.116  15.463  0.00  0.00    +0.000 C 
ATOM     30  H   UNL     1       4.799  -8.293  15.706  0.00  0.00    +0.000 HD
ATOM     31  H   UNL     1       3.516  -7.063  15.666  0.00  0.00    +0.000 HD
BRANCH  29  33
ATOM     32  O   UNL     1       4.328  -9.071  13.318  0.00  0.00    +0.000 OA
ATOM     33  C   UNL     1       3.576  -8.350  13.970  0.00  0.00    +0.000 C 
BRANCH  33  34
ATOM     34  C   UNL     1       2.442  -7.614  13.308  0.00  0.00    +0.000 C 
ATOM     35  H   UNL     1       2.347  -6.616  13.744  0.00  0.00    +0.000 HD
ATOM     36  H   UNL     1       1.505  -8.156  13.468  0.00  0.00    +0.000 HD
ATOM     37  H   UNL     1       2.631  -7.540  12.234  0.00  0.00    +0.000 HD
ENDBRANCH  33  34
ENDBRANCH  29  33
ENDBRANCH  26  29
ENDBRANCH  23  26
ENDBRANCH  20  23
ENDBRANCH   1  20
TORSDOF 11
ENDMDL
MODEL 8
REMARK VINA RESULT:    -4.473     19.432     20.293
REMARK INTER + INTRA:          -7.706
REMARK INTER:                  -7.295
REMARK INTRA:                  -0.411
REMARK UNBOUND:                -0.618
REMARK  Name = 22556
REMARK  11 active torsions:
REMARK  status: ('A' for Active; 'I' for Inactive)
REMARK    1  A    between atoms: C_2  and  C_3
REMARK    2  A    between atoms: C_2  and  C_4
REMARK    3  A    between atoms: C_3  and  C_5
REMARK    4  A    between atoms: C_4  and  C_6
REMARK    5  A    between atoms: C_5  and  C_7
REMARK    6  A    between atoms: C_6  and  C_8
REMARK    7  A    between atoms: C_7  and  C_9
REMARK    8  A    between atoms: C_8  and  C_10
REMARK    9  A    between atoms: C_9  and  C_11
REMARK   10  A    between atoms: C_10  and  C_12
REMARK   11  A    between atoms: C_12  and  C_13
REMARK                            x       y       z     vdW  Elec       q    Type
REMARK                         _______ _______ _______ _____ _____    ______ ____
ROOT
ATOM      1  C   UNL     1       0.588  -9.001  17.242  0.00  0.00    +0.000 C 
ATOM      2  H   UNL     1       0.497  -9.265  16.182  0.00  0.00    +0.000 HD
ATOM      3  H   UNL     1       1.648  -8.793  17.434  0.00  0.00    +0.000 HD
ENDROOT
BRANCH   1   4
ATOM      4  C   UNL     1      -0.244  -7.751  17.539  0.00  0.00    +0.000 C 
ATOM      5  H   UNL     1       0.304  -7.094  18.225  0.00  0.00    +0.000 HD
ATOM      6  H   UNL     1      -1.175  -8.039  18.041  0.00  0.00    +0.000 HD
BRANCH   4   7
ATOM      7  C   UNL     1      -0.570  -6.984  16.255  0.00  0.00    +0.000 C 
ATOM      8  H   UNL     1      -0.026  -7.432  15.415  0.00  0.00    +0.000 HD
ATOM      9  H   UNL     1      -1.640  -7.096  16.034  0.00  0.00    +0.000 HD
BRANCH   7  10
ATOM     10  C   UNL     1      -0.231  -5.493  16.333  0.00  0.00    +0.000 C 
ATOM     11  H   UNL     1      -0.553  -5.101  17.306  0.00  0.00    +0.000 HD
ATOM     12  H   UNL     1      -0.810  -4.957  15.570  0.00  0.00    +0.000 HD
BRANCH  10  13
ATOM     13  C   UNL     1       1.256  -5.197  16.132  0.00  0.00    +0.000 C 
ATOM     14  H   UNL     1       1.766  -5.183  17.103  0.00  0.00    +0.000 HD
ATOM     15  H   UNL     1       1.716  -5.993  15.535  0.00  0.00    +0.000 HD
BRANCH  13  16
ATOM     16  C   UNL     1       1.466  -3.863  15.431  0.00  0.00    +0.000 C 
ATOM     17  H   UNL     1       2.239  -3.944  14.660  0.00  0.00    +0.000 HD
ATOM     18  H   UNL     1       1.768  -3.089  16.142  0.00  0.00    +0.000 HD
ATOM     19  H   UNL     1       0.538  -3.539  14.949  0.00  0.00    +0.000 HD
ENDBRANCH  13  16
ENDBRANCH  10  13
ENDBRANCH   7  10
ENDBRANCH   4   7
ENDBRANCH   1   4
BRANCH   1  20
ATOM     20  C   UNL     1       0.139 -10.183  18.104  0.00  0.00    +0.000 C 
ATOM     21  H   UNL     1      -0.098  -9.827  19.115  0.00  0.00    +0.000 HD
ATOM     22  H   UNL     1       0.971 -10.890  18.205  0.00  0.00    +0.000 HD
BRANCH  20  23
ATOM     23  C   UNL     1      -1.076 -10.924  17.537  0.00  0.00    +0.000 C 
ATOM     24  H   UNL     1      -1.572 -10.285  16.796  0.00  0.00    +0.000 HD
ATOM     25  H   UNL     1      -1.801 -11.094  18.343  0.00  0.00    +0.000 HD
BRANCH  23  26
ATOM     26  C   UNL     1      -0.720 -12.263  16.883  0.00  0.00    +0.000 C 
ATOM     27  H   UNL     1      -0.142 -12.874  17.588  0.00  0.00    +0.000 HD
ATOM     28  H   UNL     1      -0.069 -12.082  16.020  0.00  0.00    +0.000 HD
BRANCH  26  29
ATOM     29  C   UNL     1      -1.959 -13.037  16.436  0.00  0.00    +0.000 C 
ATOM     30  H   UNL     1      -1.657 -13.888  15.813  0.00  0.00    +0.000 HD
ATOM     31  H   UNL     1      -2.605 -12.384  15.838  0.00  0.00    +0.000 HD
BRANCH  29  33
ATOM     32  O   UNL     1      -2.339 -14.373  18.417  0.00  0.00    +0.000 OA
ATOM     33  C   UNL     1      -2.788 -13.587  17.585  0.00  0.00    +0.000 C 
BRANCH  33  34
ATOM     34  C   UNL     1      -4.226 -13.140  17.639  0.00  0.00    +0.000 C 
ATOM     35  H   UNL     1      -4.426 -12.661  18.601  0.00  0.00    +0.000 HD
ATOM     36  H   UNL     1      -4.886 -14.005  17.536  0.00  0.00    +0.000 HD
ATOM     37  H   UNL     1      -4.423 -12.442  16.821  0.00  0.00    +0.000 HD
ENDBRANCH  33  34
ENDBRANCH  29  33
ENDBRANCH  26  29
ENDBRANCH  23  26
ENDBRANCH  20  23
ENDBRANCH   1  20
TORSDOF 11
ENDMDL
MODEL 9
REMARK VINA RESULT:    -4.417      2.225      4.128
REMARK INTER + INTRA:          -7.618
REMARK INTER:                  -7.000
REMARK INTRA:                  -0.618
REMARK UNBOUND:                -0.618
REMARK  Name = 22556
REMARK  11 active torsions:
REMARK  status: ('A' for Active; 'I' for Inactive)
REMARK    1  A    between atoms: C_2  and  C_3
REMARK    2  A    between atoms: C_2  and  C_4
REMARK    3  A    between atoms: C_3  and  C_5
REMARK    4  A    between atoms: C_4  and  C_6
REMARK    5  A    between atoms: C_5  and  C_7
REMARK    6  A    between atoms: C_6  and  C_8
REMARK    7  A    between atoms: C_7  and  C_9
REMARK    8  A    between atoms: C_8  and  C_10
REMARK    9  A    between atoms: C_9  and  C_11
REMARK   10  A    between atoms: C_10  and  C_12
REMARK   11  A    between atoms: C_12  and  C_13
REMARK                            x       y       z     vdW  Elec       q    Type
REMARK                         _______ _______ _______ _____ _____    ______ ____
ROOT
ATOM      1  C   UNL     1      11.337 -10.485  -2.574  0.00  0.00    +0.000 C 
ATOM      2  H   UNL     1      10.482 -10.654  -3.240  0.00  0.00    +0.000 HD
ATOM      3  H   UNL     1      11.263 -11.218  -1.761  0.00  0.00    +0.000 HD
ENDROOT
BRANCH   1   4
ATOM      4  C   UNL     1      12.643 -10.700  -3.343  0.00  0.00    +0.000 C 
ATOM      5  H   UNL     1      12.574 -11.612  -3.947  0.00  0.00    +0.000 HD
ATOM      6  H   UNL     1      13.468 -10.842  -2.635  0.00  0.00    +0.000 HD
BRANCH   4   7
ATOM      7  C   UNL     1      12.951  -9.510  -4.256  0.00  0.00    +0.000 C 
ATOM      8  H   UNL     1      12.789  -8.576  -3.704  0.00  0.00    +0.000 HD
ATOM      9  H   UNL     1      14.014  -9.535  -4.530  0.00  0.00    +0.000 HD
BRANCH   7  10
ATOM     10  C   UNL     1      12.108  -9.489  -5.534  0.00  0.00    +0.000 C 
ATOM     11  H   UNL     1      11.184  -8.928  -5.346  0.00  0.00    +0.000 HD
ATOM     12  H   UNL     1      11.808 -10.517  -5.778  0.00  0.00    +0.000 HD
BRANCH  10  13
ATOM     13  C   UNL     1      12.836  -8.883  -6.733  0.00  0.00    +0.000 C 
ATOM     14  H   UNL     1      12.733  -9.544  -7.602  0.00  0.00    +0.000 HD
ATOM     15  H   UNL     1      12.380  -7.923  -7.000  0.00  0.00    +0.000 HD
BRANCH  13  16
ATOM     16  C   UNL     1      14.313  -8.667  -6.435  0.00  0.00    +0.000 C 
ATOM     17  H   UNL     1      14.675  -7.746  -6.901  0.00  0.00    +0.000 HD
ATOM     18  H   UNL     1      14.915  -9.502  -6.808  0.00  0.00    +0.000 HD
ATOM     19  H   UNL     1      14.473  -8.588  -5.355  0.00  0.00    +0.000 HD
ENDBRANCH  13  16
ENDBRANCH  10  13
ENDBRANCH   7  10
ENDBRANCH   4   7
ENDBRANCH   1   4
BRANCH   1  20
ATOM     20  C   UNL     1      11.263  -9.072  -1.993  0.00  0.00    +0.000 C 
ATOM     21  H   UNL     1      10.868  -8.386  -2.753  0.00  0.00    +0.000 HD
ATOM     22  H   UNL     1      12.276  -8.728  -1.753  0.00  0.00    +0.000 HD
BRANCH  20  23
ATOM     23  C   UNL     1      10.395  -8.976  -0.734  0.00  0.00    +0.000 C 
ATOM     24  H   UNL     1       9.576  -8.269  -0.916  0.00  0.00    +0.000 HD
ATOM     25  H   UNL     1      10.996  -8.561   0.085  0.00  0.00    +0.000 HD
BRANCH  23  26
ATOM     26  C   UNL     1       9.806 -10.322  -0.299  0.00  0.00    +0.000 C 
ATOM     27  H   UNL     1      10.246 -10.624   0.659  0.00  0.00    +0.000 HD
ATOM     28  H   UNL     1      10.086 -11.092  -1.028  0.00  0.00    +0.000 HD
BRANCH  26  29
ATOM     29  C   UNL     1       8.284 -10.274  -0.167  0.00  0.00    +0.000 C 
ATOM     30  H   UNL     1       7.887  -9.458  -0.783  0.00  0.00    +0.000 HD
ATOM     31  H   UNL     1       8.012 -10.082   0.877  0.00  0.00    +0.000 HD
BRANCH  29  33
ATOM     32  O   UNL     1       6.379 -11.733  -0.474  0.00  0.00    +0.000 OA
ATOM     33  C   UNL     1       7.589 -11.553  -0.603  0.00  0.00    +0.000 C 
BRANCH  33  34
ATOM     34  C   UNL     1       8.474 -12.626  -1.179  0.00  0.00    +0.000 C 
ATOM     35  H   UNL     1       8.609 -13.425  -0.445  0.00  0.00    +0.000 HD
ATOM     36  H   UNL     1       9.454 -12.206  -1.422  0.00  0.00    +0.000 HD
ATOM     37  H   UNL     1       8.021 -13.024  -2.091  0.00  0.00    +0.000 HD
ENDBRANCH  33  34
ENDBRANCH  29  33
ENDBRANCH  26  29
ENDBRANCH  23  26
ENDBRANCH  20  23
ENDBRANCH   1  20
TORSDOF 11
ENDMDL
MODEL 10
REMARK VINA RESULT:    -4.387     16.350     18.676
REMARK INTER + INTRA:          -7.570
REMARK INTER:                  -6.570
REMARK INTRA:                  -1.000
REMARK UNBOUND:                -0.618
REMARK  Name = 22556
REMARK  11 active torsions:
REMARK  status: ('A' for Active; 'I' for Inactive)
REMARK    1  A    between atoms: C_2  and  C_3
REMARK    2  A    between atoms: C_2  and  C_4
REMARK    3  A    between atoms: C_3  and  C_5
REMARK    4  A    between atoms: C_4  and  C_6
REMARK    5  A    between atoms: C_5  and  C_7
REMARK    6  A    between atoms: C_6  and  C_8
REMARK    7  A    between atoms: C_7  and  C_9
REMARK    8  A    between atoms: C_8  and  C_10
REMARK    9  A    between atoms: C_9  and  C_11
REMARK   10  A    between atoms: C_10  and  C_12
REMARK   11  A    between atoms: C_12  and  C_13
REMARK                            x       y       z     vdW  Elec       q    Type
REMARK                         _______ _______ _______ _____ _____    ______ ____
ROOT
ATOM      1  C   UNL     1       2.370  -4.434  15.328  0.00  0.00    +0.000 C 
ATOM      2  H   UNL     1       2.486  -3.364  15.537  0.00  0.00    +0.000 HD
ATOM      3  H   UNL     1       2.966  -4.655  14.433  0.00  0.00    +0.000 HD
ENDROOT
BRANCH   1   4
ATOM      4  C   UNL     1       2.895  -5.253  16.510  0.00  0.00    +0.000 C 
ATOM      5  H   UNL     1       2.055  -5.614  17.115  0.00  0.00    +0.000 HD
ATOM      6  H   UNL     1       3.510  -4.615  17.156  0.00  0.00    +0.000 HD
BRANCH   4   7
ATOM      7  C   UNL     1       3.724  -6.448  16.032  0.00  0.00    +0.000 C 
ATOM      8  H   UNL     1       4.758  -6.338  16.381  0.00  0.00    +0.000 HD
ATOM      9  H   UNL     1       3.331  -7.364  16.492  0.00  0.00    +0.000 HD
BRANCH   7  10
ATOM     10  C   UNL     1       3.727  -6.617  14.510  0.00  0.00    +0.000 C 
ATOM     11  H   UNL     1       4.753  -6.804  14.170  0.00  0.00    +0.000 HD
ATOM     12  H   UNL     1       3.409  -5.673  14.048  0.00  0.00    +0.000 HD
BRANCH  10  13
ATOM     13  C   UNL     1       2.815  -7.743  14.021  0.00  0.00    +0.000 C 
ATOM     14  H   UNL     1       2.489  -8.352  14.873  0.00  0.00    +0.000 HD
ATOM     15  H   UNL     1       1.915  -7.320  13.560  0.00  0.00    +0.000 HD
BRANCH  13  16
ATOM     16  C   UNL     1       3.524  -8.630  13.008  0.00  0.00    +0.000 C 
ATOM     17  H   UNL     1       3.498  -9.679  13.320  0.00  0.00    +0.000 HD
ATOM     18  H   UNL     1       4.570  -8.332  12.889  0.00  0.00    +0.000 HD
ATOM     19  H   UNL     1       3.036  -8.553  12.031  0.00  0.00    +0.000 HD
ENDBRANCH  13  16
ENDBRANCH  10  13
ENDBRANCH   7  10
ENDBRANCH   4   7
ENDBRANCH   1   4
BRANCH   1  20
ATOM     20  C   UNL     1       0.898  -4.746  15.048  0.00  0.00    +0.000 C 
ATOM     21  H   UNL     1       0.831  -5.520  14.273  0.00  0.00    +0.000 HD
ATOM     22  H   UNL     1       0.412  -3.850  14.645  0.00  0.00    +0.000 HD
BRANCH  20  23
ATOM     23  C   UNL     1       0.129  -5.213  16.288  0.00  0.00    +0.000 C 
ATOM     24  H   UNL     1      -0.740  -4.560  16.438  0.00  0.00    +0.000 HD
ATOM     25  H   UNL     1       0.769  -5.095  17.173  0.00  0.00    +0.000 HD
BRANCH  23  26
ATOM     26  C   UNL     1      -0.348  -6.666  16.196  0.00  0.00    +0.000 C 
ATOM     27  H   UNL     1       0.224  -7.193  15.422  0.00  0.00    +0.000 HD
ATOM     28  H   UNL     1      -1.396  -6.683  15.875  0.00  0.00    +0.000 HD
BRANCH  26  29
ATOM     29  C   UNL     1      -0.207  -7.408  17.525  0.00  0.00    +0.000 C 
ATOM     30  H   UNL     1      -1.151  -7.350  18.080  0.00  0.00    +0.000 HD
ATOM     31  H   UNL     1       0.577  -6.937  18.128  0.00  0.00    +0.000 HD
BRANCH  29  33
ATOM     32  O   UNL     1      -0.701  -9.773  17.414  0.00  0.00    +0.000 OA
ATOM     33  C   UNL     1       0.142  -8.879  17.373  0.00  0.00    +0.000 C 
BRANCH  33  34
ATOM     34  C   UNL     1       1.603  -9.200  17.202  0.00  0.00    +0.000 C 
ATOM     35  H   UNL     1       2.208  -8.403  17.643  0.00  0.00    +0.000 HD
ATOM     36  H   UNL     1       1.844  -9.273  16.138  0.00  0.00    +0.000 HD
ATOM     37  H   UNL     1       1.828 -10.155  17.684  0.00  0.00    +0.000 HD
ENDBRANCH  33  34
ENDBRANCH  29  33
ENDBRANCH  26  29
ENDBRANCH  23  26
ENDBRANCH  20  23
ENDBRANCH   1  20
TORSDOF 11
ENDMDL
