MODEL 1
REMARK VINA RESULT:    -4.502      0.000      0.000
REMARK INTER + INTRA:          -5.968
REMARK INTER:                  -5.735
REMARK INTRA:                  -0.233
REMARK UNBOUND:                -0.282
REMARK  Name = 32594
REMARK  6 active torsions:
REMARK  status: ('A' for Active; 'I' for Inactive)
REMARK    1  A    between atoms: O_1  and  C_9
REMARK    2  A    between atoms: O_1  and  C_12
REMARK    3  A    between atoms: C_4  and  C_5
REMARK    4  A    between atoms: C_4  and  C_6
REMARK    5  A    between atoms: C_4  and  C_7
REMARK    6  A    between atoms: C_5  and  C_8
REMARK                            x       y       z     vdW  Elec       q    Type
REMARK                         _______ _______ _______ _____ _____    ______ ____
ROOT
ATOM      1  C   UNL     1       5.928  -3.843  -0.555  0.00  0.00    +0.000 C 
ATOM      2  H   UNL     1       5.646  -4.343  -1.492  0.00  0.00    +0.000 HD
ATOM      3  H   UNL     1       6.079  -4.655   0.168  0.00  0.00    +0.000 HD
ENDROOT
BRANCH   1   6
ATOM      4  N   UNL     1       7.960  -2.865   0.320  0.00  0.00    +0.000 NA
ATOM      5  N   UNL     1       8.748  -2.043  -2.243  0.00  0.00    +0.000 NA
ATOM      6  C   UNL     1       7.224  -3.102  -0.774  0.00  0.00    +0.000 A 
ATOM      7  C   UNL     1       7.596  -2.707  -2.030  0.00  0.00    +0.000 A 
ATOM      8  C   UNL     1       9.113  -2.201   0.108  0.00  0.00    +0.000 A 
ATOM      9  C   UNL     1       9.501  -1.797  -1.151  0.00  0.00    +0.000 A 
ATOM     10  H   UNL     1       9.717  -2.004   0.984  0.00  0.00    +0.000 HD
ATOM     11  H   UNL     1      10.428  -1.264  -1.321  0.00  0.00    +0.000 HD
BRANCH   7  12
ATOM     12  O   UNL     1       6.817  -2.967  -3.123  0.00  0.00    +0.000 OA
BRANCH  12  13
ATOM     13  C   UNL     1       7.371  -2.656  -4.397  0.00  0.00    +0.000 C 
ATOM     14  H   UNL     1       8.366  -3.100  -4.511  0.00  0.00    +0.000 HD
ATOM     15  H   UNL     1       7.407  -1.572  -4.555  0.00  0.00    +0.000 HD
ATOM     16  H   UNL     1       6.719  -3.088  -5.162  0.00  0.00    +0.000 HD
ENDBRANCH  12  13
ENDBRANCH   7  12
ENDBRANCH   1   6
BRANCH   1  17
ATOM     17  C   UNL     1       4.768  -2.944  -0.087  0.00  0.00    +0.000 C 
ATOM     18  H   UNL     1       5.197  -2.032   0.347  0.00  0.00    +0.000 HD
BRANCH  17  19
ATOM     19  C   UNL     1       3.842  -2.552  -1.241  0.00  0.00    +0.000 C 
ATOM     20  H   UNL     1       3.613  -1.481  -1.259  0.00  0.00    +0.000 HD
ATOM     21  H   UNL     1       2.908  -3.120  -1.206  0.00  0.00    +0.000 HD
ATOM     22  H   UNL     1       4.323  -2.787  -2.197  0.00  0.00    +0.000 HD
ENDBRANCH  17  19
BRANCH  17  23
ATOM     23  C   UNL     1       3.962  -3.661   0.999  0.00  0.00    +0.000 C 
ATOM     24  H   UNL     1       3.930  -3.052   1.908  0.00  0.00    +0.000 HD
ATOM     25  H   UNL     1       2.926  -3.846   0.698  0.00  0.00    +0.000 HD
ATOM     26  H   UNL     1       4.421  -4.620   1.264  0.00  0.00    +0.000 HD
ENDBRANCH  17  23
ENDBRANCH   1  17
TORSDOF 6
ENDMDL
MODEL 2
REMARK VINA RESULT:    -4.248     16.667     18.068
REMARK INTER + INTRA:          -5.647
REMARK INTER:                  -5.562
REMARK INTRA:                  -0.085
REMARK UNBOUND:                -0.282
REMARK  Name = 32594
REMARK  6 active torsions:
REMARK  status: ('A' for Active; 'I' for Inactive)
REMARK    1  A    between atoms: O_1  and  C_9
REMARK    2  A    between atoms: O_1  and  C_12
REMARK    3  A    between atoms: C_4  and  C_5
REMARK    4  A    between atoms: C_4  and  C_6
REMARK    5  A    between atoms: C_4  and  C_7
REMARK    6  A    between atoms: C_5  and  C_8
REMARK                            x       y       z     vdW  Elec       q    Type
REMARK                         _______ _______ _______ _____ _____    ______ ____
ROOT
ATOM      1  C   UNL     1       1.797  -4.361  14.603  0.00  0.00    +0.000 C 
ATOM      2  H   UNL     1       2.503  -4.751  13.857  0.00  0.00    +0.000 HD
ATOM      3  H   UNL     1       1.048  -3.804  14.024  0.00  0.00    +0.000 HD
ENDROOT
BRANCH   1   6
ATOM      4  N   UNL     1       0.054  -5.241  16.030  0.00  0.00    +0.000 NA
ATOM      5  N   UNL     1       1.086  -7.839  15.804  0.00  0.00    +0.000 NA
ATOM      6  C   UNL     1       1.142  -5.526  15.303  0.00  0.00    +0.000 A 
ATOM      7  C   UNL     1       1.656  -6.788  15.184  0.00  0.00    +0.000 A 
ATOM      8  C   UNL     1      -0.518  -6.292  16.651  0.00  0.00    +0.000 A 
ATOM      9  C   UNL     1      -0.012  -7.568  16.540  0.00  0.00    +0.000 A 
ATOM     10  H   UNL     1      -1.399  -6.075  17.242  0.00  0.00    +0.000 HD
ATOM     11  H   UNL     1      -0.472  -8.413  17.038  0.00  0.00    +0.000 HD
BRANCH   7  12
ATOM     12  O   UNL     1       2.770  -7.039  14.432  0.00  0.00    +0.000 OA
BRANCH  12  13
ATOM     13  C   UNL     1       2.598  -7.861  13.282  0.00  0.00    +0.000 C 
ATOM     14  H   UNL     1       3.325  -7.605  12.504  0.00  0.00    +0.000 HD
ATOM     15  H   UNL     1       1.574  -7.790  12.898  0.00  0.00    +0.000 HD
ATOM     16  H   UNL     1       2.775  -8.899  13.581  0.00  0.00    +0.000 HD
ENDBRANCH  12  13
ENDBRANCH   7  12
ENDBRANCH   1   6
BRANCH   1  17
ATOM     17  C   UNL     1       2.536  -3.399  15.553  0.00  0.00    +0.000 C 
ATOM     18  H   UNL     1       1.793  -2.730  16.006  0.00  0.00    +0.000 HD
BRANCH  17  19
ATOM     19  C   UNL     1       3.272  -4.145  16.668  0.00  0.00    +0.000 C 
ATOM     20  H   UNL     1       3.957  -4.910  16.289  0.00  0.00    +0.000 HD
ATOM     21  H   UNL     1       2.567  -4.605  17.365  0.00  0.00    +0.000 HD
ATOM     22  H   UNL     1       3.878  -3.439  17.248  0.00  0.00    +0.000 HD
ENDBRANCH  17  19
BRANCH  17  23
ATOM     23  C   UNL     1       3.530  -2.548  14.758  0.00  0.00    +0.000 C 
ATOM     24  H   UNL     1       4.154  -1.963  15.442  0.00  0.00    +0.000 HD
ATOM     25  H   UNL     1       4.203  -3.155  14.145  0.00  0.00    +0.000 HD
ATOM     26  H   UNL     1       3.009  -1.840  14.103  0.00  0.00    +0.000 HD
ENDBRANCH  17  23
ENDBRANCH   1  17
TORSDOF 6
ENDMDL
MODEL 3
REMARK VINA RESULT:    -4.009     16.595     17.795
REMARK INTER + INTRA:          -5.346
REMARK INTER:                  -5.544
REMARK INTRA:                   0.198
REMARK UNBOUND:                -0.282
REMARK  Name = 32594
REMARK  6 active torsions:
REMARK  status: ('A' for Active; 'I' for Inactive)
REMARK    1  A    between atoms: O_1  and  C_9
REMARK    2  A    between atoms: O_1  and  C_12
REMARK    3  A    between atoms: C_4  and  C_5
REMARK    4  A    between atoms: C_4  and  C_6
REMARK    5  A    between atoms: C_4  and  C_7
REMARK    6  A    between atoms: C_5  and  C_8
REMARK                            x       y       z     vdW  Elec       q    Type
REMARK                         _______ _______ _______ _____ _____    ______ ____
ROOT
ATOM      1  C   UNL     1       3.078  -4.261  16.396  0.00  0.00    +0.000 C 
ATOM      2  H   UNL     1       2.471  -4.258  17.311  0.00  0.00    +0.000 HD
ATOM      3  H   UNL     1       4.117  -4.338  16.742  0.00  0.00    +0.000 HD
ENDROOT
BRANCH   1   6
ATOM      4  N   UNL     1       3.636  -5.892  14.700  0.00  0.00    +0.000 NA
ATOM      5  N   UNL     1       1.169  -7.184  15.034  0.00  0.00    +0.000 NA
ATOM      6  C   UNL     1       2.716  -5.478  15.581  0.00  0.00    +0.000 A 
ATOM      7  C   UNL     1       1.509  -6.097  15.754  0.00  0.00    +0.000 A 
ATOM      8  C   UNL     1       3.297  -6.979  13.978  0.00  0.00    +0.000 A 
ATOM      9  C   UNL     1       2.085  -7.614  14.142  0.00  0.00    +0.000 A 
ATOM     10  H   UNL     1       4.032  -7.325  13.263  0.00  0.00    +0.000 HD
ATOM     11  H   UNL     1       1.813  -8.488  13.564  0.00  0.00    +0.000 HD
BRANCH   7  12
ATOM     12  O   UNL     1       0.596  -5.644  16.665  0.00  0.00    +0.000 OA
BRANCH  12  13
ATOM     13  C   UNL     1      -0.735  -6.138  16.542  0.00  0.00    +0.000 C 
ATOM     14  H   UNL     1      -0.738  -7.223  16.392  0.00  0.00    +0.000 HD
ATOM     15  H   UNL     1      -1.269  -5.630  15.731  0.00  0.00    +0.000 HD
ATOM     16  H   UNL     1      -1.260  -5.925  17.478  0.00  0.00    +0.000 HD
ENDBRANCH  12  13
ENDBRANCH   7  12
ENDBRANCH   1   6
BRANCH   1  17
ATOM     17  C   UNL     1       2.881  -2.929  15.647  0.00  0.00    +0.000 C 
ATOM     18  H   UNL     1       2.881  -2.119  16.387  0.00  0.00    +0.000 HD
BRANCH  17  19
ATOM     19  C   UNL     1       3.998  -2.669  14.633  0.00  0.00    +0.000 C 
ATOM     20  H   UNL     1       4.950  -2.405  15.105  0.00  0.00    +0.000 HD
ATOM     21  H   UNL     1       3.715  -1.882  13.928  0.00  0.00    +0.000 HD
ATOM     22  H   UNL     1       4.180  -3.575  14.043  0.00  0.00    +0.000 HD
ENDBRANCH  17  19
BRANCH  17  23
ATOM     23  C   UNL     1       1.528  -2.931  14.932  0.00  0.00    +0.000 C 
ATOM     24  H   UNL     1       0.852  -2.211  15.406  0.00  0.00    +0.000 HD
ATOM     25  H   UNL     1       1.611  -2.650  13.878  0.00  0.00    +0.000 HD
ATOM     26  H   UNL     1       1.051  -3.916  14.992  0.00  0.00    +0.000 HD
ENDBRANCH  17  23
ENDBRANCH   1  17
TORSDOF 6
ENDMDL
MODEL 4
REMARK VINA RESULT:    -3.984     15.878     16.559
REMARK INTER + INTRA:          -5.314
REMARK INTER:                  -5.126
REMARK INTRA:                  -0.188
REMARK UNBOUND:                -0.282
REMARK  Name = 32594
REMARK  6 active torsions:
REMARK  status: ('A' for Active; 'I' for Inactive)
REMARK    1  A    between atoms: O_1  and  C_9
REMARK    2  A    between atoms: O_1  and  C_12
REMARK    3  A    between atoms: C_4  and  C_5
REMARK    4  A    between atoms: C_4  and  C_6
REMARK    5  A    between atoms: C_4  and  C_7
REMARK    6  A    between atoms: C_5  and  C_8
REMARK                            x       y       z     vdW  Elec       q    Type
REMARK                         _______ _______ _______ _____ _____    ______ ____
ROOT
ATOM      1  C   UNL     1       3.363  -5.156  15.458  0.00  0.00    +0.000 C 
ATOM      2  H   UNL     1       2.804  -5.443  16.359  0.00  0.00    +0.000 HD
ATOM      3  H   UNL     1       4.344  -4.825  15.823  0.00  0.00    +0.000 HD
ENDROOT
BRANCH   1   6
ATOM      4  N   UNL     1       2.403  -6.861  14.036  0.00  0.00    +0.000 NA
ATOM      5  N   UNL     1       4.923  -8.013  13.601  0.00  0.00    +0.000 NA
ATOM      6  C   UNL     1       3.525  -6.374  14.582  0.00  0.00    +0.000 A 
ATOM      7  C   UNL     1       4.761  -6.925  14.379  0.00  0.00    +0.000 A 
ATOM      8  C   UNL     1       2.565  -7.950  13.258  0.00  0.00    +0.000 A 
ATOM      9  C   UNL     1       3.803  -8.516  13.044  0.00  0.00    +0.000 A 
ATOM     10  H   UNL     1       1.666  -8.353  12.811  0.00  0.00    +0.000 HD
ATOM     11  H   UNL     1       3.933  -9.390  12.418  0.00  0.00    +0.000 HD
BRANCH   7  12
ATOM     12  O   UNL     1       5.883  -6.398  14.954  0.00  0.00    +0.000 OA
BRANCH  12  13
ATOM     13  C   UNL     1       7.114  -6.596  14.264  0.00  0.00    +0.000 C 
ATOM     14  H   UNL     1       7.850  -7.087  14.909  0.00  0.00    +0.000 HD
ATOM     15  H   UNL     1       7.504  -5.649  13.876  0.00  0.00    +0.000 HD
ATOM     16  H   UNL     1       6.919  -7.256  13.413  0.00  0.00    +0.000 HD
ENDBRANCH  12  13
ENDBRANCH   7  12
ENDBRANCH   1   6
BRANCH   1  17
ATOM     17  C   UNL     1       2.647  -3.981  14.764  0.00  0.00    +0.000 C 
ATOM     18  H   UNL     1       2.493  -4.250  13.711  0.00  0.00    +0.000 HD
BRANCH  17  19
ATOM     19  C   UNL     1       1.287  -3.681  15.400  0.00  0.00    +0.000 C 
ATOM     20  H   UNL     1       1.370  -3.291  16.419  0.00  0.00    +0.000 HD
ATOM     21  H   UNL     1       0.650  -4.571  15.404  0.00  0.00    +0.000 HD
ATOM     22  H   UNL     1       0.764  -2.918  14.812  0.00  0.00    +0.000 HD
ENDBRANCH  17  19
BRANCH  17  23
ATOM     23  C   UNL     1       3.528  -2.731  14.820  0.00  0.00    +0.000 C 
ATOM     24  H   UNL     1       3.096  -1.939  14.199  0.00  0.00    +0.000 HD
ATOM     25  H   UNL     1       3.623  -2.331  15.834  0.00  0.00    +0.000 HD
ATOM     26  H   UNL     1       4.533  -2.938  14.433  0.00  0.00    +0.000 HD
ENDBRANCH  17  23
ENDBRANCH   1  17
TORSDOF 6
ENDMDL
MODEL 5
REMARK VINA RESULT:    -3.907     16.000     16.743
REMARK INTER + INTRA:          -5.217
REMARK INTER:                  -4.979
REMARK INTRA:                  -0.238
REMARK UNBOUND:                -0.282
REMARK  Name = 32594
REMARK  6 active torsions:
REMARK  status: ('A' for Active; 'I' for Inactive)
REMARK    1  A    between atoms: O_1  and  C_9
REMARK    2  A    between atoms: O_1  and  C_12
REMARK    3  A    between atoms: C_4  and  C_5
REMARK    4  A    between atoms: C_4  and  C_6
REMARK    5  A    between atoms: C_4  and  C_7
REMARK    6  A    between atoms: C_5  and  C_8
REMARK                            x       y       z     vdW  Elec       q    Type
REMARK                         _______ _______ _______ _____ _____    ______ ____
ROOT
ATOM      1  C   UNL     1      16.100   9.418   1.334  0.00  0.00    +0.000 C 
ATOM      2  H   UNL     1      15.432   9.456   0.463  0.00  0.00    +0.000 HD
ATOM      3  H   UNL     1      16.002   8.398   1.726  0.00  0.00    +0.000 HD
ENDROOT
BRANCH   1   6
ATOM      4  N   UNL     1      17.686  10.651  -0.012  0.00  0.00    +0.000 NA
ATOM      5  N   UNL     1      19.810   9.079   0.928  0.00  0.00    +0.000 NA
ATOM      6  C   UNL     1      17.515   9.656   0.868  0.00  0.00    +0.000 A 
ATOM      7  C   UNL     1      18.540   8.881   1.335  0.00  0.00    +0.000 A 
ATOM      8  C   UNL     1      18.956  10.849  -0.420  0.00  0.00    +0.000 A 
ATOM      9  C   UNL     1      19.999  10.078   0.042  0.00  0.00    +0.000 A 
ATOM     10  H   UNL     1      19.108  11.652  -1.131  0.00  0.00    +0.000 HD
ATOM     11  H   UNL     1      21.019  10.238  -0.284  0.00  0.00    +0.000 HD
BRANCH   7  12
ATOM     12  O   UNL     1      18.325   7.874   2.234  0.00  0.00    +0.000 OA
BRANCH  12  13
ATOM     13  C   UNL     1      19.396   6.959   2.444  0.00  0.00    +0.000 C 
ATOM     14  H   UNL     1      20.359   7.418   2.196  0.00  0.00    +0.000 HD
ATOM     15  H   UNL     1      19.244   6.038   1.869  0.00  0.00    +0.000 HD
ATOM     16  H   UNL     1      19.410   6.696   3.506  0.00  0.00    +0.000 HD
ENDBRANCH  12  13
ENDBRANCH   7  12
ENDBRANCH   1   6
BRANCH   1  17
ATOM     17  C   UNL     1      15.616  10.427   2.394  0.00  0.00    +0.000 C 
ATOM     18  H   UNL     1      16.290  11.292   2.373  0.00  0.00    +0.000 HD
BRANCH  17  19
ATOM     19  C   UNL     1      14.188  10.907   2.120  0.00  0.00    +0.000 C 
ATOM     20  H   UNL     1      13.996  11.913   2.506  0.00  0.00    +0.000 HD
ATOM     21  H   UNL     1      13.453  10.213   2.538  0.00  0.00    +0.000 HD
ATOM     22  H   UNL     1      14.012  10.946   1.039  0.00  0.00    +0.000 HD
ENDBRANCH  17  19
BRANCH  17  23
ATOM     23  C   UNL     1      15.688   9.792   3.784  0.00  0.00    +0.000 C 
ATOM     24  H   UNL     1      15.028  10.326   4.477  0.00  0.00    +0.000 HD
ATOM     25  H   UNL     1      15.372   8.744   3.783  0.00  0.00    +0.000 HD
ATOM     26  H   UNL     1      16.704   9.847   4.192  0.00  0.00    +0.000 HD
ENDBRANCH  17  23
ENDBRANCH   1  17
TORSDOF 6
ENDMDL
MODEL 6
REMARK VINA RESULT:    -3.898     21.482     23.934
REMARK INTER + INTRA:          -5.205
REMARK INTER:                  -4.997
REMARK INTRA:                  -0.208
REMARK UNBOUND:                -0.282
REMARK  Name = 32594
REMARK  6 active torsions:
REMARK  status: ('A' for Active; 'I' for Inactive)
REMARK    1  A    between atoms: O_1  and  C_9
REMARK    2  A    between atoms: O_1  and  C_12
REMARK    3  A    between atoms: C_4  and  C_5
REMARK    4  A    between atoms: C_4  and  C_6
REMARK    5  A    between atoms: C_4  and  C_7
REMARK    6  A    between atoms: C_5  and  C_8
REMARK                            x       y       z     vdW  Elec       q    Type
REMARK                         _______ _______ _______ _____ _____    ______ ____
ROOT
ATOM      1  C   UNL     1     -11.966 -14.796   8.053  0.00  0.00    +0.000 C 
ATOM      2  H   UNL     1     -11.547 -13.894   8.520  0.00  0.00    +0.000 HD
ATOM      3  H   UNL     1     -12.243 -14.490   7.036  0.00  0.00    +0.000 HD
ENDROOT
BRANCH   1   6
ATOM      4  N   UNL     1     -11.065 -16.913   8.798  0.00  0.00    +0.000 NA
ATOM      5  N   UNL     1      -8.846 -16.642   7.104  0.00  0.00    +0.000 NA
ATOM      6  C   UNL     1     -10.892 -15.854   7.997  0.00  0.00    +0.000 A 
ATOM      7  C   UNL     1      -9.815 -15.708   7.166  0.00  0.00    +0.000 A 
ATOM      8  C   UNL     1     -10.096 -17.848   8.737  0.00  0.00    +0.000 A 
ATOM      9  C   UNL     1      -9.006 -17.715   7.904  0.00  0.00    +0.000 A 
ATOM     10  H   UNL     1     -10.224 -18.710   9.379  0.00  0.00    +0.000 HD
ATOM     11  H   UNL     1      -8.228 -18.467   7.855  0.00  0.00    +0.000 HD
BRANCH   7  12
ATOM     12  O   UNL     1      -9.674 -14.611   6.362  0.00  0.00    +0.000 OA
BRANCH  12  13
ATOM     13  C   UNL     1      -8.346 -14.244   6.002  0.00  0.00    +0.000 C 
ATOM     14  H   UNL     1      -7.784 -15.111   5.639  0.00  0.00    +0.000 HD
ATOM     15  H   UNL     1      -7.829 -13.767   6.842  0.00  0.00    +0.000 HD
ATOM     16  H   UNL     1      -8.408 -13.517   5.186  0.00  0.00    +0.000 HD
ENDBRANCH  12  13
ENDBRANCH   7  12
ENDBRANCH   1   6
BRANCH   1  17
ATOM     17  C   UNL     1     -13.228 -15.231   8.823  0.00  0.00    +0.000 C 
ATOM     18  H   UNL     1     -13.044 -16.228   9.243  0.00  0.00    +0.000 HD
BRANCH  17  19
ATOM     19  C   UNL     1     -13.564 -14.269   9.966  0.00  0.00    +0.000 C 
ATOM     20  H   UNL     1     -14.547 -14.460  10.409  0.00  0.00    +0.000 HD
ATOM     21  H   UNL     1     -13.514 -13.229   9.632  0.00  0.00    +0.000 HD
ATOM     22  H   UNL     1     -12.829 -14.381  10.771  0.00  0.00    +0.000 HD
ENDBRANCH  17  19
BRANCH  17  23
ATOM     23  C   UNL     1     -14.416 -15.323   7.862  0.00  0.00    +0.000 C 
ATOM     24  H   UNL     1     -15.057 -14.442   7.972  0.00  0.00    +0.000 HD
ATOM     25  H   UNL     1     -14.103 -15.366   6.814  0.00  0.00    +0.000 HD
ATOM     26  H   UNL     1     -15.031 -16.204   8.077  0.00  0.00    +0.000 HD
ENDBRANCH  17  23
ENDBRANCH   1  17
TORSDOF 6
ENDMDL
MODEL 7
REMARK VINA RESULT:    -3.703     16.148     17.323
REMARK INTER + INTRA:          -4.959
REMARK INTER:                  -4.656
REMARK INTRA:                  -0.303
REMARK UNBOUND:                -0.282
REMARK  Name = 32594
REMARK  6 active torsions:
REMARK  status: ('A' for Active; 'I' for Inactive)
REMARK    1  A    between atoms: O_1  and  C_9
REMARK    2  A    between atoms: O_1  and  C_12
REMARK    3  A    between atoms: C_4  and  C_5
REMARK    4  A    between atoms: C_4  and  C_6
REMARK    5  A    between atoms: C_4  and  C_7
REMARK    6  A    between atoms: C_5  and  C_8
REMARK                            x       y       z     vdW  Elec       q    Type
REMARK                         _______ _______ _______ _____ _____    ______ ____
ROOT
ATOM      1  C   UNL     1       8.574  12.928  -6.982  0.00  0.00    +0.000 C 
ATOM      2  H   UNL     1       9.162  12.076  -7.351  0.00  0.00    +0.000 HD
ATOM      3  H   UNL     1       7.569  12.786  -7.402  0.00  0.00    +0.000 HD
ENDROOT
BRANCH   1   6
ATOM      4  N   UNL     1       9.609  12.381  -4.865  0.00  0.00    +0.000 NA
ATOM      5  N   UNL     1       7.325  13.203  -3.459  0.00  0.00    +0.000 NA
ATOM      6  C   UNL     1       8.515  12.857  -5.476  0.00  0.00    +0.000 A 
ATOM      7  C   UNL     1       7.395  13.261  -4.803  0.00  0.00    +0.000 A 
ATOM      8  C   UNL     1       9.540  12.323  -3.520  0.00  0.00    +0.000 A 
ATOM      9  C   UNL     1       8.419  12.726  -2.829  0.00  0.00    +0.000 A 
ATOM     10  H   UNL     1      10.418  11.941  -3.015  0.00  0.00    +0.000 HD
ATOM     11  H   UNL     1       8.364  12.680  -1.749  0.00  0.00    +0.000 HD
BRANCH   7  12
ATOM     12  O   UNL     1       6.298  13.741  -5.463  0.00  0.00    +0.000 OA
BRANCH  12  13
ATOM     13  C   UNL     1       5.923  15.088  -5.191  0.00  0.00    +0.000 C 
ATOM     14  H   UNL     1       6.186  15.370  -4.166  0.00  0.00    +0.000 HD
ATOM     15  H   UNL     1       4.854  15.243  -5.376  0.00  0.00    +0.000 HD
ATOM     16  H   UNL     1       6.482  15.736  -5.873  0.00  0.00    +0.000 HD
ENDBRANCH  12  13
ENDBRANCH   7  12
ENDBRANCH   1   6
BRANCH   1  17
ATOM     17  C   UNL     1       9.178  14.239  -7.520  0.00  0.00    +0.000 C 
ATOM     18  H   UNL     1       9.513  14.837  -6.663  0.00  0.00    +0.000 HD
BRANCH  17  19
ATOM     19  C   UNL     1      10.374  13.984  -8.441  0.00  0.00    +0.000 C 
ATOM     20  H   UNL     1      10.348  12.996  -8.911  0.00  0.00    +0.000 HD
ATOM     21  H   UNL     1      11.318  14.103  -7.901  0.00  0.00    +0.000 HD
ATOM     22  H   UNL     1      10.378  14.719  -9.254  0.00  0.00    +0.000 HD
ENDBRANCH  17  19
BRANCH  17  23
ATOM     23  C   UNL     1       8.108  15.032  -8.274  0.00  0.00    +0.000 C 
ATOM     24  H   UNL     1       8.039  16.048  -7.870  0.00  0.00    +0.000 HD
ATOM     25  H   UNL     1       8.330  15.124  -9.342  0.00  0.00    +0.000 HD
ATOM     26  H   UNL     1       7.121  14.568  -8.163  0.00  0.00    +0.000 HD
ENDBRANCH  17  23
ENDBRANCH   1  17
TORSDOF 6
ENDMDL
MODEL 8
REMARK VINA RESULT:    -3.679     20.512     21.936
REMARK INTER + INTRA:          -4.929
REMARK INTER:                  -4.649
REMARK INTRA:                  -0.280
REMARK UNBOUND:                -0.282
REMARK  Name = 32594
REMARK  6 active torsions:
REMARK  status: ('A' for Active; 'I' for Inactive)
REMARK    1  A    between atoms: O_1  and  C_9
REMARK    2  A    between atoms: O_1  and  C_12
REMARK    3  A    between atoms: C_4  and  C_5
REMARK    4  A    between atoms: C_4  and  C_6
REMARK    5  A    between atoms: C_4  and  C_7
REMARK    6  A    between atoms: C_5  and  C_8
REMARK                            x       y       z     vdW  Elec       q    Type
REMARK                         _______ _______ _______ _____ _____    ______ ____
ROOT
ATOM      1  C   UNL     1      -3.133  12.010  10.302  0.00  0.00    +0.000 C 
ATOM      2  H   UNL     1      -2.370  11.427   9.770  0.00  0.00    +0.000 HD
ATOM      3  H   UNL     1      -4.064  11.839   9.746  0.00  0.00    +0.000 HD
ENDROOT
BRANCH   1   6
ATOM      4  N   UNL     1      -4.275  11.959  12.434  0.00  0.00    +0.000 NA
ATOM      5  N   UNL     1      -2.486  10.038  13.422  0.00  0.00    +0.000 NA
ATOM      6  C   UNL     1      -3.265  11.468  11.704  0.00  0.00    +0.000 A 
ATOM      7  C   UNL     1      -2.385  10.532  12.173  0.00  0.00    +0.000 A 
ATOM      8  C   UNL     1      -4.377  11.466  13.684  0.00  0.00    +0.000 A 
ATOM      9  C   UNL     1      -3.499  10.522  14.170  0.00  0.00    +0.000 A 
ATOM     10  H   UNL     1      -5.191  11.854  14.284  0.00  0.00    +0.000 HD
ATOM     11  H   UNL     1      -3.582  10.125  15.174  0.00  0.00    +0.000 HD
BRANCH   7  12
ATOM     12  O   UNL     1      -1.365  10.055  11.397  0.00  0.00    +0.000 OA
BRANCH  12  13
ATOM     13  C   UNL     1      -0.042  10.418  11.778  0.00  0.00    +0.000 C 
ATOM     14  H   UNL     1      -0.044  10.972  12.723  0.00  0.00    +0.000 HD
ATOM     15  H   UNL     1       0.449  10.997  10.988  0.00  0.00    +0.000 HD
ATOM     16  H   UNL     1       0.529   9.497  11.928  0.00  0.00    +0.000 HD
ENDBRANCH  12  13
ENDBRANCH   7  12
ENDBRANCH   1   6
BRANCH   1  17
ATOM     17  C   UNL     1      -2.765  13.506  10.245  0.00  0.00    +0.000 C 
ATOM     18  H   UNL     1      -3.415  14.043  10.947  0.00  0.00    +0.000 HD
BRANCH  17  19
ATOM     19  C   UNL     1      -1.306  13.754  10.635  0.00  0.00    +0.000 C 
ATOM     20  H   UNL     1      -0.918  13.005  11.333  0.00  0.00    +0.000 HD
ATOM     21  H   UNL     1      -1.179  14.750  11.067  0.00  0.00    +0.000 HD
ATOM     22  H   UNL     1      -0.672  13.710   9.742  0.00  0.00    +0.000 HD
ENDBRANCH  17  19
BRANCH  17  23
ATOM     23  C   UNL     1      -3.022  14.049   8.837  0.00  0.00    +0.000 C 
ATOM     24  H   UNL     1      -3.482  13.274   8.214  0.00  0.00    +0.000 HD
ATOM     25  H   UNL     1      -3.700  14.908   8.837  0.00  0.00    +0.000 HD
ATOM     26  H   UNL     1      -2.085  14.346   8.351  0.00  0.00    +0.000 HD
ENDBRANCH  17  23
ENDBRANCH   1  17
TORSDOF 6
ENDMDL
MODEL 9
REMARK VINA RESULT:    -3.675     15.651     16.482
REMARK INTER + INTRA:          -4.923
REMARK INTER:                  -4.685
REMARK INTRA:                  -0.238
REMARK UNBOUND:                -0.282
REMARK  Name = 32594
REMARK  6 active torsions:
REMARK  status: ('A' for Active; 'I' for Inactive)
REMARK    1  A    between atoms: O_1  and  C_9
REMARK    2  A    between atoms: O_1  and  C_12
REMARK    3  A    between atoms: C_4  and  C_5
REMARK    4  A    between atoms: C_4  and  C_6
REMARK    5  A    between atoms: C_4  and  C_7
REMARK    6  A    between atoms: C_5  and  C_8
REMARK                            x       y       z     vdW  Elec       q    Type
REMARK                         _______ _______ _______ _____ _____    ______ ____
ROOT
ATOM      1  C   UNL     1      16.409   8.627   2.392  0.00  0.00    +0.000 C 
ATOM      2  H   UNL     1      15.758   8.776   1.520  0.00  0.00    +0.000 HD
ATOM      3  H   UNL     1      16.030   7.721   2.881  0.00  0.00    +0.000 HD
ENDROOT
BRANCH   1   6
ATOM      4  N   UNL     1      18.542   7.507   2.597  0.00  0.00    +0.000 NA
ATOM      5  N   UNL     1      19.559   8.890   0.379  0.00  0.00    +0.000 NA
ATOM      6  C   UNL     1      17.819   8.399   1.907  0.00  0.00    +0.000 A 
ATOM      7  C   UNL     1      18.302   9.080   0.824  0.00  0.00    +0.000 A 
ATOM      8  C   UNL     1      19.800   7.315   2.152  0.00  0.00    +0.000 A 
ATOM      9  C   UNL     1      20.300   7.994   1.063  0.00  0.00    +0.000 A 
ATOM     10  H   UNL     1      20.395   6.596   2.701  0.00  0.00    +0.000 HD
ATOM     11  H   UNL     1      21.310   7.839   0.705  0.00  0.00    +0.000 HD
BRANCH   7  12
ATOM     12  O   UNL     1      17.532   9.984   0.145  0.00  0.00    +0.000 OA
BRANCH  12  13
ATOM     13  C   UNL     1      18.131  11.241  -0.156  0.00  0.00    +0.000 C 
ATOM     14  H   UNL     1      17.370  11.985  -0.417  0.00  0.00    +0.000 HD
ATOM     15  H   UNL     1      18.870  11.141  -0.958  0.00  0.00    +0.000 HD
ATOM     16  H   UNL     1      18.650  11.589   0.741  0.00  0.00    +0.000 HD
ENDBRANCH  12  13
ENDBRANCH   7  12
ENDBRANCH   1   6
BRANCH   1  17
ATOM     17  C   UNL     1      16.266   9.828   3.347  0.00  0.00    +0.000 C 
ATOM     18  H   UNL     1      17.188  10.420   3.291  0.00  0.00    +0.000 HD
BRANCH  17  19
ATOM     19  C   UNL     1      15.082  10.723   2.972  0.00  0.00    +0.000 C 
ATOM     20  H   UNL     1      15.256  11.779   3.203  0.00  0.00    +0.000 HD
ATOM     21  H   UNL     1      14.166  10.391   3.469  0.00  0.00    +0.000 HD
ATOM     22  H   UNL     1      14.900  10.663   1.893  0.00  0.00    +0.000 HD
ENDBRANCH  17  19
BRANCH  17  23
ATOM     23  C   UNL     1      16.100   9.329   4.784  0.00  0.00    +0.000 C 
ATOM     24  H   UNL     1      17.077   9.073   5.209  0.00  0.00    +0.000 HD
ATOM     25  H   UNL     1      15.651  10.082   5.440  0.00  0.00    +0.000 HD
ATOM     26  H   UNL     1      15.481   8.425   4.820  0.00  0.00    +0.000 HD
ENDBRANCH  17  23
ENDBRANCH   1  17
TORSDOF 6
ENDMDL
MODEL 10
REMARK VINA RESULT:    -3.562     16.325     17.384
REMARK INTER + INTRA:          -4.781
REMARK INTER:                  -4.499
REMARK INTRA:                  -0.282
REMARK UNBOUND:                -0.282
REMARK  Name = 32594
REMARK  6 active torsions:
REMARK  status: ('A' for Active; 'I' for Inactive)
REMARK    1  A    between atoms: O_1  and  C_9
REMARK    2  A    between atoms: O_1  and  C_12
REMARK    3  A    between atoms: C_4  and  C_5
REMARK    4  A    between atoms: C_4  and  C_6
REMARK    5  A    between atoms: C_4  and  C_7
REMARK    6  A    between atoms: C_5  and  C_8
REMARK                            x       y       z     vdW  Elec       q    Type
REMARK                         _______ _______ _______ _____ _____    ______ ____
ROOT
ATOM      1  C   UNL     1      10.232  12.414  -4.383  0.00  0.00    +0.000 C 
ATOM      2  H   UNL     1       9.818  11.856  -5.234  0.00  0.00    +0.000 HD
ATOM      3  H   UNL     1      10.906  11.709  -3.879  0.00  0.00    +0.000 HD
ENDROOT
BRANCH   1   6
ATOM      4  N   UNL     1      11.745  14.264  -4.013  0.00  0.00    +0.000 NA
ATOM      5  N   UNL     1      11.664  14.962  -6.728  0.00  0.00    +0.000 NA
ATOM      6  C   UNL     1      11.019  13.588  -4.912  0.00  0.00    +0.000 A 
ATOM      7  C   UNL     1      10.969  13.917  -6.239  0.00  0.00    +0.000 A 
ATOM      8  C   UNL     1      12.440  15.311  -4.502  0.00  0.00    +0.000 A 
ATOM      9  C   UNL     1      12.401  15.654  -5.835  0.00  0.00    +0.000 A 
ATOM     10  H   UNL     1      13.033  15.865  -3.785  0.00  0.00    +0.000 HD
ATOM     11  H   UNL     1      12.960  16.494  -6.228  0.00  0.00    +0.000 HD
BRANCH   7  12
ATOM     12  O   UNL     1      10.215  13.201  -7.127  0.00  0.00    +0.000 OA
BRANCH  12  13
ATOM     13  C   UNL     1       9.098  13.868  -7.707  0.00  0.00    +0.000 C 
ATOM     14  H   UNL     1       9.056  13.695  -8.788  0.00  0.00    +0.000 HD
ATOM     15  H   UNL     1       9.123  14.941  -7.485  0.00  0.00    +0.000 HD
ATOM     16  H   UNL     1       8.190  13.451  -7.262  0.00  0.00    +0.000 HD
ENDBRANCH  12  13
ENDBRANCH   7  12
ENDBRANCH   1   6
BRANCH   1  17
ATOM     17  C   UNL     1       9.090  12.810  -3.427  0.00  0.00    +0.000 C 
ATOM     18  H   UNL     1       9.412  13.693  -2.860  0.00  0.00    +0.000 HD
BRANCH  17  19
ATOM     19  C   UNL     1       7.802  13.151  -4.180  0.00  0.00    +0.000 C 
ATOM     20  H   UNL     1       7.469  14.180  -4.013  0.00  0.00    +0.000 HD
ATOM     21  H   UNL     1       6.996  12.462  -3.911  0.00  0.00    +0.000 HD
ATOM     22  H   UNL     1       7.965  13.044  -5.259  0.00  0.00    +0.000 HD
ENDBRANCH  17  19
BRANCH  17  23
ATOM     23  C   UNL     1       8.824  11.672  -2.439  0.00  0.00    +0.000 C 
ATOM     24  H   UNL     1       7.907  11.873  -1.873  0.00  0.00    +0.000 HD
ATOM     25  H   UNL     1       8.690  10.707  -2.938  0.00  0.00    +0.000 HD
ATOM     26  H   UNL     1       9.641  11.578  -1.714  0.00  0.00    +0.000 HD
ENDBRANCH  17  23
ENDBRANCH   1  17
TORSDOF 6
ENDMDL
