MODEL 1
REMARK VINA RESULT:    -3.426      0.000      0.000
REMARK INTER + INTRA:          -3.526
REMARK INTER:                  -3.526
REMARK INTRA:                   0.000
REMARK UNBOUND:                 0.000
REMARK  Name = 7976
REMARK  1 active torsions:
REMARK  status: ('A' for Active; 'I' for Inactive)
REMARK    1  A    between atoms: C_3  and  C_4
REMARK                            x       y       z     vdW  Elec       q    Type
REMARK                         _______ _______ _______ _____ _____    ______ ____
ROOT
ATOM      1  N   UNL     1     -17.288  -1.741   8.730  0.00  0.00    +0.000 NA
ATOM      2  N   UNL     1     -20.025  -1.878   9.332  0.00  0.00    +0.000 NA
ATOM      3  C   UNL     1     -18.232  -1.312   7.867  0.00  0.00    +0.000 A 
ATOM      4  C   UNL     1     -19.576  -1.380   8.163  0.00  0.00    +0.000 A 
ATOM      5  C   UNL     1     -17.738  -2.239   9.898  0.00  0.00    +0.000 A 
ATOM      6  C   UNL     1     -19.081  -2.307  10.194  0.00  0.00    +0.000 A 
ATOM      7  H   UNL     1     -20.340  -1.037   7.475  0.00  0.00    +0.000 HD
ATOM      8  H   UNL     1     -16.981  -2.584  10.592  0.00  0.00    +0.000 HD
ATOM      9  H   UNL     1     -19.441  -2.708  11.134  0.00  0.00    +0.000 HD
ENDROOT
BRANCH   3  10
ATOM     10  C   UNL     1     -17.772  -0.755   6.566  0.00  0.00    +0.000 C 
ATOM     11  H   UNL     1     -17.661  -1.555   5.826  0.00  0.00    +0.000 HD
ATOM     12  H   UNL     1     -18.492  -0.020   6.190  0.00  0.00    +0.000 HD
ATOM     13  H   UNL     1     -16.803  -0.256   6.671  0.00  0.00    +0.000 HD
ENDBRANCH   3  10
TORSDOF 1
ENDMDL
MODEL 2
REMARK VINA RESULT:    -3.331     20.644     21.263
REMARK INTER + INTRA:          -3.428
REMARK INTER:                  -3.428
REMARK INTRA:                   0.000
REMARK UNBOUND:                 0.000
REMARK  Name = 7976
REMARK  1 active torsions:
REMARK  status: ('A' for Active; 'I' for Inactive)
REMARK    1  A    between atoms: C_3  and  C_4
REMARK                            x       y       z     vdW  Elec       q    Type
REMARK                         _______ _______ _______ _____ _____    ______ ____
ROOT
ATOM      1  N   UNL     1       2.324  -5.232  14.352  0.00  0.00    +0.000 NA
ATOM      2  N   UNL     1       0.127  -6.077  15.877  0.00  0.00    +0.000 NA
ATOM      3  C   UNL     1       1.624  -4.380  15.128  0.00  0.00    +0.000 A 
ATOM      4  C   UNL     1       0.544  -4.796  15.877  0.00  0.00    +0.000 A 
ATOM      5  C   UNL     1       1.905  -6.513  14.352  0.00  0.00    +0.000 A 
ATOM      6  C   UNL     1       0.827  -6.928  15.101  0.00  0.00    +0.000 A 
ATOM      7  H   UNL     1      -0.024  -4.118  16.503  0.00  0.00    +0.000 HD
ATOM      8  H   UNL     1       2.467  -7.198  13.728  0.00  0.00    +0.000 HD
ATOM      9  H   UNL     1       0.492  -7.958  15.100  0.00  0.00    +0.000 HD
ENDROOT
BRANCH   3  10
ATOM     10  C   UNL     1       2.057  -2.957  15.152  0.00  0.00    +0.000 C 
ATOM     11  H   UNL     1       1.589  -2.430  15.991  0.00  0.00    +0.000 HD
ATOM     12  H   UNL     1       3.145  -2.891  15.253  0.00  0.00    +0.000 HD
ATOM     13  H   UNL     1       1.770  -2.442  14.229  0.00  0.00    +0.000 HD
ENDBRANCH   3  10
TORSDOF 1
ENDMDL
MODEL 3
REMARK VINA RESULT:    -3.306      1.241      2.719
REMARK INTER + INTRA:          -3.402
REMARK INTER:                  -3.402
REMARK INTRA:                   0.000
REMARK UNBOUND:                 0.000
REMARK  Name = 7976
REMARK  1 active torsions:
REMARK  status: ('A' for Active; 'I' for Inactive)
REMARK    1  A    between atoms: C_3  and  C_4
REMARK                            x       y       z     vdW  Elec       q    Type
REMARK                         _______ _______ _______ _____ _____    ______ ____
ROOT
ATOM      1  N   UNL     1     -17.953  -1.528   9.066  0.00  0.00    +0.000 NA
ATOM      2  N   UNL     1     -19.591  -1.509   6.788  0.00  0.00    +0.000 NA
ATOM      3  C   UNL     1     -19.242  -1.921   9.110  0.00  0.00    +0.000 A 
ATOM      4  C   UNL     1     -20.046  -1.912   7.991  0.00  0.00    +0.000 A 
ATOM      5  C   UNL     1     -17.499  -1.125   7.862  0.00  0.00    +0.000 A 
ATOM      6  C   UNL     1     -18.302  -1.116   6.744  0.00  0.00    +0.000 A 
ATOM      7  H   UNL     1     -21.083  -2.226   8.018  0.00  0.00    +0.000 HD
ATOM      8  H   UNL     1     -16.463  -0.809   7.826  0.00  0.00    +0.000 HD
ATOM      9  H   UNL     1     -17.935  -0.792   5.778  0.00  0.00    +0.000 HD
ENDROOT
BRANCH   3  10
ATOM     10  C   UNL     1     -19.779  -2.372  10.422  0.00  0.00    +0.000 C 
ATOM     11  H   UNL     1     -19.897  -3.461  10.432  0.00  0.00    +0.000 HD
ATOM     12  H   UNL     1     -19.104  -2.079  11.232  0.00  0.00    +0.000 HD
ATOM     13  H   UNL     1     -20.759  -1.926  10.621  0.00  0.00    +0.000 HD
ENDBRANCH   3  10
TORSDOF 1
ENDMDL
MODEL 4
REMARK VINA RESULT:    -3.199     25.592     26.910
REMARK INTER + INTRA:          -3.292
REMARK INTER:                  -3.292
REMARK INTRA:                   0.000
REMARK UNBOUND:                 0.000
REMARK  Name = 7976
REMARK  1 active torsions:
REMARK  status: ('A' for Active; 'I' for Inactive)
REMARK    1  A    between atoms: C_3  and  C_4
REMARK                            x       y       z     vdW  Elec       q    Type
REMARK                         _______ _______ _______ _____ _____    ______ ____
ROOT
ATOM      1  N   UNL     1       6.460  -1.981  -0.570  0.00  0.00    +0.000 NA
ATOM      2  N   UNL     1       7.303  -4.648  -0.786  0.00  0.00    +0.000 NA
ATOM      3  C   UNL     1       5.663  -2.943  -1.077  0.00  0.00    +0.000 A 
ATOM      4  C   UNL     1       6.078  -4.253  -1.183  0.00  0.00    +0.000 A 
ATOM      5  C   UNL     1       7.686  -2.377  -0.172  0.00  0.00    +0.000 A 
ATOM      6  C   UNL     1       8.100  -3.686  -0.278  0.00  0.00    +0.000 A 
ATOM      7  H   UNL     1       5.443  -5.032  -1.590  0.00  0.00    +0.000 HD
ATOM      8  H   UNL     1       8.327  -1.604   0.235  0.00  0.00    +0.000 HD
ATOM      9  H   UNL     1       9.085  -4.002   0.041  0.00  0.00    +0.000 HD
ENDROOT
BRANCH   3  10
ATOM     10  C   UNL     1       4.302  -2.543  -1.526  0.00  0.00    +0.000 C 
ATOM     11  H   UNL     1       3.896  -1.766  -0.869  0.00  0.00    +0.000 HD
ATOM     12  H   UNL     1       4.336  -2.161  -2.552  0.00  0.00    +0.000 HD
ATOM     13  H   UNL     1       3.615  -3.395  -1.505  0.00  0.00    +0.000 HD
ENDBRANCH   3  10
TORSDOF 1
ENDMDL
MODEL 5
REMARK VINA RESULT:    -3.166     27.731     28.704
REMARK INTER + INTRA:          -3.259
REMARK INTER:                  -3.259
REMARK INTRA:                   0.000
REMARK UNBOUND:                 0.000
REMARK  Name = 7976
REMARK  1 active torsions:
REMARK  status: ('A' for Active; 'I' for Inactive)
REMARK    1  A    between atoms: C_3  and  C_4
REMARK                            x       y       z     vdW  Elec       q    Type
REMARK                         _______ _______ _______ _____ _____    ______ ____
ROOT
ATOM      1  N   UNL     1       8.366  -1.430  -0.263  0.00  0.00    +0.000 NA
ATOM      2  N   UNL     1       8.308  -4.221  -0.539  0.00  0.00    +0.000 NA
ATOM      3  C   UNL     1       9.059  -2.067  -1.228  0.00  0.00    +0.000 A 
ATOM      4  C   UNL     1       9.030  -3.438  -1.363  0.00  0.00    +0.000 A 
ATOM      5  C   UNL     1       7.644  -2.214   0.562  0.00  0.00    +0.000 A 
ATOM      6  C   UNL     1       7.615  -3.584   0.427  0.00  0.00    +0.000 A 
ATOM      7  H   UNL     1       9.585  -3.957  -2.137  0.00  0.00    +0.000 HD
ATOM      8  H   UNL     1       7.086  -1.703   1.338  0.00  0.00    +0.000 HD
ATOM      9  H   UNL     1       7.034  -4.213   1.090  0.00  0.00    +0.000 HD
ENDROOT
BRANCH   3  10
ATOM     10  C   UNL     1       9.869  -1.233  -2.158  0.00  0.00    +0.000 C 
ATOM     11  H   UNL     1      10.682  -0.738  -1.617  0.00  0.00    +0.000 HD
ATOM     12  H   UNL     1      10.295  -1.853  -2.953  0.00  0.00    +0.000 HD
ATOM     13  H   UNL     1       9.255  -0.457  -2.627  0.00  0.00    +0.000 HD
ENDBRANCH   3  10
TORSDOF 1
ENDMDL
MODEL 6
REMARK VINA RESULT:    -3.111     24.930     25.871
REMARK INTER + INTRA:          -3.202
REMARK INTER:                  -3.202
REMARK INTRA:                   0.000
REMARK UNBOUND:                 0.000
REMARK  Name = 7976
REMARK  1 active torsions:
REMARK  status: ('A' for Active; 'I' for Inactive)
REMARK    1  A    between atoms: C_3  and  C_4
REMARK                            x       y       z     vdW  Elec       q    Type
REMARK                         _______ _______ _______ _____ _____    ______ ____
ROOT
ATOM      1  N   UNL     1       2.605 -12.841   3.177  0.00  0.00    +0.000 NA
ATOM      2  N   UNL     1       4.608 -13.095   1.229  0.00  0.00    +0.000 NA
ATOM      3  C   UNL     1       3.332 -13.968   3.043  0.00  0.00    +0.000 A 
ATOM      4  C   UNL     1       4.316 -14.093   2.086  0.00  0.00    +0.000 A 
ATOM      5  C   UNL     1       2.898 -11.843   2.319  0.00  0.00    +0.000 A 
ATOM      6  C   UNL     1       3.881 -11.967   1.363  0.00  0.00    +0.000 A 
ATOM      7  H   UNL     1       4.904 -14.996   1.972  0.00  0.00    +0.000 HD
ATOM      8  H   UNL     1       2.314 -10.936   2.426  0.00  0.00    +0.000 HD
ATOM      9  H   UNL     1       4.115 -11.164   0.675  0.00  0.00    +0.000 HD
ENDROOT
BRANCH   3  10
ATOM     10  C   UNL     1       3.037 -15.092   3.973  0.00  0.00    +0.000 C 
ATOM     11  H   UNL     1       2.964 -16.035   3.420  0.00  0.00    +0.000 HD
ATOM     12  H   UNL     1       3.826 -15.181   4.727  0.00  0.00    +0.000 HD
ATOM     13  H   UNL     1       2.087 -14.933   4.494  0.00  0.00    +0.000 HD
ENDBRANCH   3  10
TORSDOF 1
ENDMDL
MODEL 7
REMARK VINA RESULT:    -3.083      1.491      2.722
REMARK INTER + INTRA:          -3.173
REMARK INTER:                  -3.173
REMARK INTRA:                   0.000
REMARK UNBOUND:                 0.000
REMARK  Name = 7976
REMARK  1 active torsions:
REMARK  status: ('A' for Active; 'I' for Inactive)
REMARK    1  A    between atoms: C_3  and  C_4
REMARK                            x       y       z     vdW  Elec       q    Type
REMARK                         _______ _______ _______ _____ _____    ______ ____
ROOT
ATOM      1  N   UNL     1     -19.494  -1.333   6.818  0.00  0.00    +0.000 NA
ATOM      2  N   UNL     1     -18.239  -1.682   9.302  0.00  0.00    +0.000 NA
ATOM      3  C   UNL     1     -20.188  -1.644   7.930  0.00  0.00    +0.000 A 
ATOM      4  C   UNL     1     -19.572  -1.815   9.151  0.00  0.00    +0.000 A 
ATOM      5  C   UNL     1     -18.161  -1.199   6.970  0.00  0.00    +0.000 A 
ATOM      6  C   UNL     1     -17.545  -1.370   8.189  0.00  0.00    +0.000 A 
ATOM      7  H   UNL     1     -20.123  -2.066  10.050  0.00  0.00    +0.000 HD
ATOM      8  H   UNL     1     -17.602  -0.949   6.076  0.00  0.00    +0.000 HD
ATOM      9  H   UNL     1     -16.474  -1.263   8.310  0.00  0.00    +0.000 HD
ENDROOT
BRANCH   3  10
ATOM     10  C   UNL     1     -21.663  -1.800   7.801  0.00  0.00    +0.000 C 
ATOM     11  H   UNL     1     -21.945  -2.853   7.899  0.00  0.00    +0.000 HD
ATOM     12  H   UNL     1     -22.177  -1.220   8.574  0.00  0.00    +0.000 HD
ATOM     13  H   UNL     1     -22.012  -1.446   6.825  0.00  0.00    +0.000 HD
ENDBRANCH   3  10
TORSDOF 1
ENDMDL
MODEL 8
REMARK VINA RESULT:    -3.083     27.123     28.179
REMARK INTER + INTRA:          -3.173
REMARK INTER:                  -3.173
REMARK INTRA:                   0.000
REMARK UNBOUND:                 0.000
REMARK  Name = 7976
REMARK  1 active torsions:
REMARK  status: ('A' for Active; 'I' for Inactive)
REMARK    1  A    between atoms: C_3  and  C_4
REMARK                            x       y       z     vdW  Elec       q    Type
REMARK                         _______ _______ _______ _____ _____    ______ ____
ROOT
ATOM      1  N   UNL     1       6.756  -1.965  -0.571  0.00  0.00    +0.000 NA
ATOM      2  N   UNL     1       9.437  -2.694  -0.955  0.00  0.00    +0.000 NA
ATOM      3  C   UNL     1       7.152  -2.695  -1.633  0.00  0.00    +0.000 A 
ATOM      4  C   UNL     1       8.470  -3.053  -1.822  0.00  0.00    +0.000 A 
ATOM      5  C   UNL     1       7.725  -1.607   0.295  0.00  0.00    +0.000 A 
ATOM      6  C   UNL     1       9.041  -1.965   0.107  0.00  0.00    +0.000 A 
ATOM      7  H   UNL     1       8.796  -3.639  -2.673  0.00  0.00    +0.000 HD
ATOM      8  H   UNL     1       7.407  -1.020   1.149  0.00  0.00    +0.000 HD
ATOM      9  H   UNL     1       9.818  -1.676   0.804  0.00  0.00    +0.000 HD
ENDROOT
BRANCH   3  10
ATOM     10  C   UNL     1       6.110  -3.109  -2.611  0.00  0.00    +0.000 C 
ATOM     11  H   UNL     1       5.818  -2.261  -3.239  0.00  0.00    +0.000 HD
ATOM     12  H   UNL     1       6.485  -3.914  -3.251  0.00  0.00    +0.000 HD
ATOM     13  H   UNL     1       5.213  -3.474  -2.100  0.00  0.00    +0.000 HD
ENDBRANCH   3  10
TORSDOF 1
ENDMDL
MODEL 9
REMARK VINA RESULT:    -3.042     15.002     16.136
REMARK INTER + INTRA:          -3.131
REMARK INTER:                  -3.131
REMARK INTRA:                   0.000
REMARK UNBOUND:                 0.000
REMARK  Name = 7976
REMARK  1 active torsions:
REMARK  status: ('A' for Active; 'I' for Inactive)
REMARK    1  A    between atoms: C_3  and  C_4
REMARK                            x       y       z     vdW  Elec       q    Type
REMARK                         _______ _______ _______ _____ _____    ______ ____
ROOT
ATOM      1  N   UNL     1     -15.549  13.728   6.216  0.00  0.00    +0.000 NA
ATOM      2  N   UNL     1     -15.286  14.002   3.437  0.00  0.00    +0.000 NA
ATOM      3  C   UNL     1     -15.524  12.661   5.392  0.00  0.00    +0.000 A 
ATOM      4  C   UNL     1     -15.395  12.796   4.027  0.00  0.00    +0.000 A 
ATOM      5  C   UNL     1     -15.440  14.935   5.624  0.00  0.00    +0.000 A 
ATOM      6  C   UNL     1     -15.311  15.069   4.260  0.00  0.00    +0.000 A 
ATOM      7  H   UNL     1     -15.374  11.943   3.358  0.00  0.00    +0.000 HD
ATOM      8  H   UNL     1     -15.459  15.793   6.286  0.00  0.00    +0.000 HD
ATOM      9  H   UNL     1     -15.223  16.040   3.786  0.00  0.00    +0.000 HD
ENDROOT
BRANCH   3  10
ATOM     10  C   UNL     1     -15.642  11.312   6.010  0.00  0.00    +0.000 C 
ATOM     11  H   UNL     1     -15.737  10.545   5.235  0.00  0.00    +0.000 HD
ATOM     12  H   UNL     1     -14.761  11.094   6.622  0.00  0.00    +0.000 HD
ATOM     13  H   UNL     1     -16.525  11.250   6.655  0.00  0.00    +0.000 HD
ENDBRANCH   3  10
TORSDOF 1
ENDMDL
MODEL 10
REMARK VINA RESULT:    -2.926     32.273     33.180
REMARK INTER + INTRA:          -3.012
REMARK INTER:                  -3.012
REMARK INTRA:                   0.000
REMARK UNBOUND:                 0.000
REMARK  Name = 7976
REMARK  1 active torsions:
REMARK  status: ('A' for Active; 'I' for Inactive)
REMARK    1  A    between atoms: C_3  and  C_4
REMARK                            x       y       z     vdW  Elec       q    Type
REMARK                         _______ _______ _______ _____ _____    ______ ____
ROOT
ATOM      1  N   UNL     1       7.278  13.056  -3.564  0.00  0.00    +0.000 NA
ATOM      2  N   UNL     1       9.002  12.741  -5.754  0.00  0.00    +0.000 NA
ATOM      3  C   UNL     1       8.424  12.351  -3.475  0.00  0.00    +0.000 A 
ATOM      4  C   UNL     1       9.271  12.196  -4.551  0.00  0.00    +0.000 A 
ATOM      5  C   UNL     1       7.011  13.601  -4.768  0.00  0.00    +0.000 A 
ATOM      6  C   UNL     1       7.857  13.446  -5.843  0.00  0.00    +0.000 A 
ATOM      7  H   UNL     1      10.193  11.631  -4.488  0.00  0.00    +0.000 HD
ATOM      8  H   UNL     1       6.090  14.168  -4.840  0.00  0.00    +0.000 HD
ATOM      9  H   UNL     1       7.641  13.884  -6.809  0.00  0.00    +0.000 HD
ENDROOT
BRANCH   3  10
ATOM     10  C   UNL     1       8.752  11.734  -2.160  0.00  0.00    +0.000 C 
ATOM     11  H   UNL     1       8.371  10.709  -2.114  0.00  0.00    +0.000 HD
ATOM     12  H   UNL     1       9.836  11.718  -2.007  0.00  0.00    +0.000 HD
ATOM     13  H   UNL     1       8.302  12.299  -1.337  0.00  0.00    +0.000 HD
ENDBRANCH   3  10
TORSDOF 1
ENDMDL
