MODEL 1
REMARK VINA RESULT:    -4.069      0.000      0.000
REMARK INTER + INTRA:          -5.688
REMARK INTER:                  -5.557
REMARK INTRA:                  -0.131
REMARK UNBOUND:                -0.192
REMARK  Name = 8093
REMARK  7 active torsions:
REMARK  status: ('A' for Active; 'I' for Inactive)
REMARK    1  A    between atoms: C_2  and  C_3
REMARK    2  A    between atoms: C_2  and  C_4
REMARK    3  A    between atoms: C_3  and  C_5
REMARK    4  A    between atoms: C_4  and  C_6
REMARK    5  A    between atoms: C_5  and  C_7
REMARK    6  A    between atoms: C_6  and  C_8
REMARK    7  A    between atoms: C_8  and  C_9
REMARK                            x       y       z     vdW  Elec       q    Type
REMARK                         _______ _______ _______ _____ _____    ______ ____
ROOT
ATOM      1  C   UNL     1       1.042  -4.665  15.563  0.00  0.00    +0.000 C 
ATOM      2  H   UNL     1       0.425  -3.778  15.381  0.00  0.00    +0.000 HD
ATOM      3  H   UNL     1       1.420  -4.593  16.590  0.00  0.00    +0.000 HD
ENDROOT
BRANCH   1   4
ATOM      4  C   UNL     1       2.219  -4.686  14.584  0.00  0.00    +0.000 C 
ATOM      5  H   UNL     1       1.930  -4.189  13.650  0.00  0.00    +0.000 HD
ATOM      6  H   UNL     1       2.469  -5.724  14.334  0.00  0.00    +0.000 HD
BRANCH   4   7
ATOM      7  C   UNL     1       3.447  -3.994  15.177  0.00  0.00    +0.000 C 
ATOM      8  H   UNL     1       4.359  -4.493  14.831  0.00  0.00    +0.000 HD
ATOM      9  H   UNL     1       3.427  -4.072  16.269  0.00  0.00    +0.000 HD
BRANCH   7  10
ATOM     10  C   UNL     1       3.503  -2.526  14.782  0.00  0.00    +0.000 C 
ATOM     11  H   UNL     1       3.888  -2.409  13.764  0.00  0.00    +0.000 HD
ATOM     12  H   UNL     1       4.150  -1.962  15.461  0.00  0.00    +0.000 HD
ATOM     13  H   UNL     1       2.503  -2.085  14.820  0.00  0.00    +0.000 HD
ENDBRANCH   7  10
ENDBRANCH   4   7
ENDBRANCH   1   4
BRANCH   1  14
ATOM     14  C   UNL     1       0.183  -5.926  15.424  0.00  0.00    +0.000 C 
ATOM     15  H   UNL     1      -0.573  -5.770  14.644  0.00  0.00    +0.000 HD
ATOM     16  H   UNL     1       0.815  -6.757  15.084  0.00  0.00    +0.000 HD
BRANCH  14  17
ATOM     17  C   UNL     1      -0.503  -6.312  16.730  0.00  0.00    +0.000 C 
ATOM     18  H   UNL     1      -0.373  -5.514  17.470  0.00  0.00    +0.000 HD
ATOM     19  H   UNL     1      -1.575  -6.453  16.557  0.00  0.00    +0.000 HD
BRANCH  17  21
ATOM     20  O   UNL     1       0.625  -8.426  16.638  0.00  0.00    +0.000 OA
ATOM     21  C   UNL     1       0.047  -7.589  17.333  0.00  0.00    +0.000 C 
BRANCH  21  22
ATOM     22  C   UNL     1      -0.124  -7.790  18.815  0.00  0.00    +0.000 C 
ATOM     23  H   UNL     1       0.410  -7.007  19.358  0.00  0.00    +0.000 HD
ATOM     24  H   UNL     1      -1.185  -7.741  19.070  0.00  0.00    +0.000 HD
ATOM     25  H   UNL     1       0.288  -8.761  19.102  0.00  0.00    +0.000 HD
ENDBRANCH  21  22
ENDBRANCH  17  21
ENDBRANCH  14  17
ENDBRANCH   1  14
TORSDOF 7
ENDMDL
MODEL 2
REMARK VINA RESULT:    -3.952     16.476     17.809
REMARK INTER + INTRA:          -5.529
REMARK INTER:                  -5.301
REMARK INTRA:                  -0.229
REMARK UNBOUND:                -0.192
REMARK  Name = 8093
REMARK  7 active torsions:
REMARK  status: ('A' for Active; 'I' for Inactive)
REMARK    1  A    between atoms: C_2  and  C_3
REMARK    2  A    between atoms: C_2  and  C_4
REMARK    3  A    between atoms: C_3  and  C_5
REMARK    4  A    between atoms: C_4  and  C_6
REMARK    5  A    between atoms: C_5  and  C_7
REMARK    6  A    between atoms: C_6  and  C_8
REMARK    7  A    between atoms: C_8  and  C_9
REMARK                            x       y       z     vdW  Elec       q    Type
REMARK                         _______ _______ _______ _____ _____    ______ ____
ROOT
ATOM      1  C   UNL     1       4.157 -12.160   1.184  0.00  0.00    +0.000 C 
ATOM      2  H   UNL     1       4.173 -13.236   1.390  0.00  0.00    +0.000 HD
ATOM      3  H   UNL     1       5.030 -11.721   1.683  0.00  0.00    +0.000 HD
ENDROOT
BRANCH   1   4
ATOM      4  C   UNL     1       2.877 -11.543   1.755  0.00  0.00    +0.000 C 
ATOM      5  H   UNL     1       2.090 -11.554   0.990  0.00  0.00    +0.000 HD
ATOM      6  H   UNL     1       3.061 -10.493   2.015  0.00  0.00    +0.000 HD
BRANCH   4   7
ATOM      7  C   UNL     1       2.400 -12.300   2.994  0.00  0.00    +0.000 C 
ATOM      8  H   UNL     1       1.325 -12.500   2.918  0.00  0.00    +0.000 HD
ATOM      9  H   UNL     1       2.554 -11.686   3.888  0.00  0.00    +0.000 HD
BRANCH   7  10
ATOM     10  C   UNL     1       3.140 -13.618   3.160  0.00  0.00    +0.000 C 
ATOM     11  H   UNL     1       3.692 -13.876   2.251  0.00  0.00    +0.000 HD
ATOM     12  H   UNL     1       2.444 -14.434   3.382  0.00  0.00    +0.000 HD
ATOM     13  H   UNL     1       3.856 -13.550   3.985  0.00  0.00    +0.000 HD
ENDBRANCH   7  10
ENDBRANCH   4   7
ENDBRANCH   1   4
BRANCH   1  14
ATOM     14  C   UNL     1       4.261 -11.923  -0.325  0.00  0.00    +0.000 C 
ATOM     15  H   UNL     1       3.255 -11.818  -0.750  0.00  0.00    +0.000 HD
ATOM     16  H   UNL     1       4.777 -10.971  -0.506  0.00  0.00    +0.000 HD
BRANCH  14  17
ATOM     17  C   UNL     1       5.002 -13.046  -1.042  0.00  0.00    +0.000 C 
ATOM     18  H   UNL     1       4.498 -14.002  -0.862  0.00  0.00    +0.000 HD
ATOM     19  H   UNL     1       5.009 -12.856  -2.121  0.00  0.00    +0.000 HD
BRANCH  17  21
ATOM     20  O   UNL     1       6.884 -14.283  -0.218  0.00  0.00    +0.000 OA
ATOM     21  C   UNL     1       6.440 -13.194  -0.585  0.00  0.00    +0.000 C 
BRANCH  21  22
ATOM     22  C   UNL     1       7.311 -11.966  -0.612  0.00  0.00    +0.000 C 
ATOM     23  H   UNL     1       6.744 -11.120  -1.007  0.00  0.00    +0.000 HD
ATOM     24  H   UNL     1       7.642 -11.731   0.402  0.00  0.00    +0.000 HD
ATOM     25  H   UNL     1       8.174 -12.145  -1.259  0.00  0.00    +0.000 HD
ENDBRANCH  21  22
ENDBRANCH  17  21
ENDBRANCH  14  17
ENDBRANCH   1  14
TORSDOF 7
ENDMDL
MODEL 3
REMARK VINA RESULT:    -3.945     18.049     18.814
REMARK INTER + INTRA:          -5.521
REMARK INTER:                  -5.371
REMARK INTRA:                  -0.150
REMARK UNBOUND:                -0.192
REMARK  Name = 8093
REMARK  7 active torsions:
REMARK  status: ('A' for Active; 'I' for Inactive)
REMARK    1  A    between atoms: C_2  and  C_3
REMARK    2  A    between atoms: C_2  and  C_4
REMARK    3  A    between atoms: C_3  and  C_5
REMARK    4  A    between atoms: C_4  and  C_6
REMARK    5  A    between atoms: C_5  and  C_7
REMARK    6  A    between atoms: C_6  and  C_8
REMARK    7  A    between atoms: C_8  and  C_9
REMARK                            x       y       z     vdW  Elec       q    Type
REMARK                         _______ _______ _______ _____ _____    ______ ____
ROOT
ATOM      1  C   UNL     1       8.805 -10.618  -0.924  0.00  0.00    +0.000 C 
ATOM      2  H   UNL     1       9.708 -11.227  -0.798  0.00  0.00    +0.000 HD
ATOM      3  H   UNL     1       8.483 -10.727  -1.967  0.00  0.00    +0.000 HD
ENDROOT
BRANCH   1   4
ATOM      4  C   UNL     1       9.130  -9.149  -0.640  0.00  0.00    +0.000 C 
ATOM      5  H   UNL     1       9.075  -8.962   0.440  0.00  0.00    +0.000 HD
ATOM      6  H   UNL     1       8.378  -8.508  -1.117  0.00  0.00    +0.000 HD
BRANCH   4   7
ATOM      7  C   UNL     1      10.520  -8.777  -1.156  0.00  0.00    +0.000 C 
ATOM      8  H   UNL     1      11.203  -8.625  -0.312  0.00  0.00    +0.000 HD
ATOM      9  H   UNL     1      10.471  -7.832  -1.709  0.00  0.00    +0.000 HD
BRANCH   7  10
ATOM     10  C   UNL     1      11.085  -9.858  -2.064  0.00  0.00    +0.000 C 
ATOM     11  H   UNL     1      11.051  -9.548  -3.113  0.00  0.00    +0.000 HD
ATOM     12  H   UNL     1      10.518 -10.790  -1.963  0.00  0.00    +0.000 HD
ATOM     13  H   UNL     1      12.127 -10.066  -1.803  0.00  0.00    +0.000 HD
ENDBRANCH   7  10
ENDBRANCH   4   7
ENDBRANCH   1   4
BRANCH   1  14
ATOM     14  C   UNL     1       7.703 -11.132   0.006  0.00  0.00    +0.000 C 
ATOM     15  H   UNL     1       8.150 -11.491   0.941  0.00  0.00    +0.000 HD
ATOM     16  H   UNL     1       7.042 -10.299   0.277  0.00  0.00    +0.000 HD
BRANCH  14  17
ATOM     17  C   UNL     1       6.879 -12.248  -0.627  0.00  0.00    +0.000 C 
ATOM     18  H   UNL     1       6.854 -12.123  -1.715  0.00  0.00    +0.000 HD
ATOM     19  H   UNL     1       7.334 -13.219  -0.400  0.00  0.00    +0.000 HD
BRANCH  17  21
ATOM     20  O   UNL     1       5.171 -12.634   1.011  0.00  0.00    +0.000 OA
ATOM     21  C   UNL     1       5.445 -12.278  -0.136  0.00  0.00    +0.000 C 
BRANCH  21  22
ATOM     22  C   UNL     1       4.371 -11.840  -1.095  0.00  0.00    +0.000 C 
ATOM     23  H   UNL     1       3.447 -11.637  -0.547  0.00  0.00    +0.000 HD
ATOM     24  H   UNL     1       4.688 -10.929  -1.607  0.00  0.00    +0.000 HD
ATOM     25  H   UNL     1       4.183 -12.635  -1.821  0.00  0.00    +0.000 HD
ENDBRANCH  21  22
ENDBRANCH  17  21
ENDBRANCH  14  17
ENDBRANCH   1  14
TORSDOF 7
ENDMDL
MODEL 4
REMARK VINA RESULT:    -3.934     18.931     20.217
REMARK INTER + INTRA:          -5.506
REMARK INTER:                  -5.298
REMARK INTRA:                  -0.208
REMARK UNBOUND:                -0.192
REMARK  Name = 8093
REMARK  7 active torsions:
REMARK  status: ('A' for Active; 'I' for Inactive)
REMARK    1  A    between atoms: C_2  and  C_3
REMARK    2  A    between atoms: C_2  and  C_4
REMARK    3  A    between atoms: C_3  and  C_5
REMARK    4  A    between atoms: C_4  and  C_6
REMARK    5  A    between atoms: C_5  and  C_7
REMARK    6  A    between atoms: C_6  and  C_8
REMARK    7  A    between atoms: C_8  and  C_9
REMARK                            x       y       z     vdW  Elec       q    Type
REMARK                         _______ _______ _______ _____ _____    ______ ____
ROOT
ATOM      1  C   UNL     1       7.523 -11.127  -0.497  0.00  0.00    +0.000 C 
ATOM      2  H   UNL     1       7.021 -11.126   0.477  0.00  0.00    +0.000 HD
ATOM      3  H   UNL     1       6.753 -10.959  -1.260  0.00  0.00    +0.000 HD
ENDROOT
BRANCH   1   4
ATOM      4  C   UNL     1       8.190 -12.485  -0.733  0.00  0.00    +0.000 C 
ATOM      5  H   UNL     1       8.741 -12.786   0.168  0.00  0.00    +0.000 HD
ATOM      6  H   UNL     1       8.923 -12.397  -1.545  0.00  0.00    +0.000 HD
BRANCH   4   7
ATOM      7  C   UNL     1       7.159 -13.556  -1.088  0.00  0.00    +0.000 C 
ATOM      8  H   UNL     1       7.343 -14.460  -0.497  0.00  0.00    +0.000 HD
ATOM      9  H   UNL     1       7.259 -13.832  -2.144  0.00  0.00    +0.000 HD
BRANCH   7  10
ATOM     10  C   UNL     1       5.742 -13.071  -0.830  0.00  0.00    +0.000 C 
ATOM     11  H   UNL     1       5.016 -13.874  -0.996  0.00  0.00    +0.000 HD
ATOM     12  H   UNL     1       5.486 -12.236  -1.490  0.00  0.00    +0.000 HD
ATOM     13  H   UNL     1       5.640 -12.729   0.204  0.00  0.00    +0.000 HD
ENDBRANCH   7  10
ENDBRANCH   4   7
ENDBRANCH   1   4
BRANCH   1  14
ATOM     14  C   UNL     1       8.548  -9.989  -0.548  0.00  0.00    +0.000 C 
ATOM     15  H   UNL     1       8.135  -9.149  -1.120  0.00  0.00    +0.000 HD
ATOM     16  H   UNL     1       8.724  -9.617   0.470  0.00  0.00    +0.000 HD
BRANCH  14  17
ATOM     17  C   UNL     1       9.872 -10.424  -1.166  0.00  0.00    +0.000 C 
ATOM     18  H   UNL     1      10.432 -11.040  -0.454  0.00  0.00    +0.000 HD
ATOM     19  H   UNL     1       9.683 -11.020  -2.065  0.00  0.00    +0.000 HD
BRANCH  17  21
ATOM     20  O   UNL     1      10.555  -8.126  -1.108  0.00  0.00    +0.000 OA
ATOM     21  C   UNL     1      10.757  -9.256  -1.556  0.00  0.00    +0.000 C 
BRANCH  21  22
ATOM     22  C   UNL     1      11.900  -9.531  -2.495  0.00  0.00    +0.000 C 
ATOM     23  H   UNL     1      11.721  -9.034  -3.452  0.00  0.00    +0.000 HD
ATOM     24  H   UNL     1      12.828  -9.147  -2.063  0.00  0.00    +0.000 HD
ATOM     25  H   UNL     1      11.981 -10.607  -2.666  0.00  0.00    +0.000 HD
ENDBRANCH  21  22
ENDBRANCH  17  21
ENDBRANCH  14  17
ENDBRANCH   1  14
TORSDOF 7
ENDMDL
MODEL 5
REMARK VINA RESULT:    -3.922     20.273     21.959
REMARK INTER + INTRA:          -5.489
REMARK INTER:                  -5.297
REMARK INTRA:                  -0.193
REMARK UNBOUND:                -0.192
REMARK  Name = 8093
REMARK  7 active torsions:
REMARK  status: ('A' for Active; 'I' for Inactive)
REMARK    1  A    between atoms: C_2  and  C_3
REMARK    2  A    between atoms: C_2  and  C_4
REMARK    3  A    between atoms: C_3  and  C_5
REMARK    4  A    between atoms: C_4  and  C_6
REMARK    5  A    between atoms: C_5  and  C_7
REMARK    6  A    between atoms: C_6  and  C_8
REMARK    7  A    between atoms: C_8  and  C_9
REMARK                            x       y       z     vdW  Elec       q    Type
REMARK                         _______ _______ _______ _____ _____    ______ ____
ROOT
ATOM      1  C   UNL     1      10.776  -8.835  -1.445  0.00  0.00    +0.000 C 
ATOM      2  H   UNL     1      11.624  -8.220  -1.120  0.00  0.00    +0.000 HD
ATOM      3  H   UNL     1      10.152  -8.210  -2.095  0.00  0.00    +0.000 HD
ENDROOT
BRANCH   1   4
ATOM      4  C   UNL     1       9.962  -9.278  -0.226  0.00  0.00    +0.000 C 
ATOM      5  H   UNL     1      10.097  -8.556   0.589  0.00  0.00    +0.000 HD
ATOM      6  H   UNL     1      10.336 -10.245   0.133  0.00  0.00    +0.000 HD
BRANCH   4   7
ATOM      7  C   UNL     1       8.476  -9.399  -0.564  0.00  0.00    +0.000 C 
ATOM      8  H   UNL     1       8.283  -8.967  -1.553  0.00  0.00    +0.000 HD
ATOM      9  H   UNL     1       7.882  -8.830   0.159  0.00  0.00    +0.000 HD
BRANCH   7  10
ATOM     10  C   UNL     1       8.020 -10.849  -0.557  0.00  0.00    +0.000 C 
ATOM     11  H   UNL     1       7.062 -10.962  -1.075  0.00  0.00    +0.000 HD
ATOM     12  H   UNL     1       7.902 -11.218   0.467  0.00  0.00    +0.000 HD
ATOM     13  H   UNL     1       8.757 -11.481  -1.063  0.00  0.00    +0.000 HD
ENDBRANCH   7  10
ENDBRANCH   4   7
ENDBRANCH   1   4
BRANCH   1  14
ATOM     14  C   UNL     1      11.289 -10.041  -2.237  0.00  0.00    +0.000 C 
ATOM     15  H   UNL     1      11.510 -10.865  -1.548  0.00  0.00    +0.000 HD
ATOM     16  H   UNL     1      10.494 -10.398  -2.905  0.00  0.00    +0.000 HD
BRANCH  14  17
ATOM     17  C   UNL     1      12.533  -9.715  -3.057  0.00  0.00    +0.000 C 
ATOM     18  H   UNL     1      12.814  -8.667  -2.908  0.00  0.00    +0.000 HD
ATOM     19  H   UNL     1      13.367 -10.347  -2.732  0.00  0.00    +0.000 HD
BRANCH  17  21
ATOM     20  O   UNL     1      12.384 -11.056  -5.039  0.00  0.00    +0.000 OA
ATOM     21  C   UNL     1      12.335  -9.928  -4.544  0.00  0.00    +0.000 C 
BRANCH  21  22
ATOM     22  C   UNL     1      12.059  -8.716  -5.392  0.00  0.00    +0.000 C 
ATOM     23  H   UNL     1      12.533  -7.837  -4.947  0.00  0.00    +0.000 HD
ATOM     24  H   UNL     1      12.466  -8.871  -6.394  0.00  0.00    +0.000 HD
ATOM     25  H   UNL     1      10.981  -8.546  -5.445  0.00  0.00    +0.000 HD
ENDBRANCH  21  22
ENDBRANCH  17  21
ENDBRANCH  14  17
ENDBRANCH   1  14
TORSDOF 7
ENDMDL
MODEL 6
REMARK VINA RESULT:    -3.833     24.467     25.417
REMARK INTER + INTRA:          -5.369
REMARK INTER:                  -4.859
REMARK INTRA:                  -0.509
REMARK UNBOUND:                -0.192
REMARK  Name = 8093
REMARK  7 active torsions:
REMARK  status: ('A' for Active; 'I' for Inactive)
REMARK    1  A    between atoms: C_2  and  C_3
REMARK    2  A    between atoms: C_2  and  C_4
REMARK    3  A    between atoms: C_3  and  C_5
REMARK    4  A    between atoms: C_4  and  C_6
REMARK    5  A    between atoms: C_5  and  C_7
REMARK    6  A    between atoms: C_6  and  C_8
REMARK    7  A    between atoms: C_8  and  C_9
REMARK                            x       y       z     vdW  Elec       q    Type
REMARK                         _______ _______ _______ _____ _____    ______ ____
ROOT
ATOM      1  C   UNL     1      -3.534  -9.161 -10.056  0.00  0.00    +0.000 C 
ATOM      2  H   UNL     1      -2.843  -9.619 -10.773  0.00  0.00    +0.000 HD
ATOM      3  H   UNL     1      -4.372  -8.749 -10.631  0.00  0.00    +0.000 HD
ENDROOT
BRANCH   1   4
ATOM      4  C   UNL     1      -2.825  -8.031  -9.304  0.00  0.00    +0.000 C 
ATOM      5  H   UNL     1      -1.748  -8.070  -9.511  0.00  0.00    +0.000 HD
ATOM      6  H   UNL     1      -2.951  -8.175  -8.223  0.00  0.00    +0.000 HD
BRANCH   4   7
ATOM      7  C   UNL     1      -3.377  -6.664  -9.706  0.00  0.00    +0.000 C 
ATOM      8  H   UNL     1      -3.231  -6.504 -10.780  0.00  0.00    +0.000 HD
ATOM      9  H   UNL     1      -2.829  -5.873  -9.182  0.00  0.00    +0.000 HD
BRANCH   7  10
ATOM     10  C   UNL     1      -4.858  -6.544  -9.382  0.00  0.00    +0.000 C 
ATOM     11  H   UNL     1      -5.231  -5.542  -9.614  0.00  0.00    +0.000 HD
ATOM     12  H   UNL     1      -5.045  -6.744  -8.322  0.00  0.00    +0.000 HD
ATOM     13  H   UNL     1      -5.434  -7.266  -9.970  0.00  0.00    +0.000 HD
ENDBRANCH   7  10
ENDBRANCH   4   7
ENDBRANCH   1   4
BRANCH   1  14
ATOM     14  C   UNL     1      -4.056 -10.228  -9.090  0.00  0.00    +0.000 C 
ATOM     15  H   UNL     1      -5.109 -10.441  -9.311  0.00  0.00    +0.000 HD
ATOM     16  H   UNL     1      -3.507 -11.164  -9.257  0.00  0.00    +0.000 HD
BRANCH  14  17
ATOM     17  C   UNL     1      -3.915  -9.812  -7.629  0.00  0.00    +0.000 C 
ATOM     18  H   UNL     1      -3.407 -10.601  -7.063  0.00  0.00    +0.000 HD
ATOM     19  H   UNL     1      -3.318  -8.897  -7.561  0.00  0.00    +0.000 HD
BRANCH  17  21
ATOM     20  O   UNL     1      -5.314  -9.274  -5.758  0.00  0.00    +0.000 OA
ATOM     21  C   UNL     1      -5.249  -9.552  -6.956  0.00  0.00    +0.000 C 
BRANCH  21  22
ATOM     22  C   UNL     1      -6.487  -9.630  -7.808  0.00  0.00    +0.000 C 
ATOM     23  H   UNL     1      -6.207  -9.666  -8.864  0.00  0.00    +0.000 HD
ATOM     24  H   UNL     1      -7.048 -10.533  -7.557  0.00  0.00    +0.000 HD
ATOM     25  H   UNL     1      -7.103  -8.744  -7.638  0.00  0.00    +0.000 HD
ENDBRANCH  21  22
ENDBRANCH  17  21
ENDBRANCH  14  17
ENDBRANCH   1  14
TORSDOF 7
ENDMDL
MODEL 7
REMARK VINA RESULT:    -3.750      1.643      2.597
REMARK INTER + INTRA:          -5.257
REMARK INTER:                  -5.108
REMARK INTRA:                  -0.149
REMARK UNBOUND:                -0.192
REMARK  Name = 8093
REMARK  7 active torsions:
REMARK  status: ('A' for Active; 'I' for Inactive)
REMARK    1  A    between atoms: C_2  and  C_3
REMARK    2  A    between atoms: C_2  and  C_4
REMARK    3  A    between atoms: C_3  and  C_5
REMARK    4  A    between atoms: C_4  and  C_6
REMARK    5  A    between atoms: C_5  and  C_7
REMARK    6  A    between atoms: C_6  and  C_8
REMARK    7  A    between atoms: C_8  and  C_9
REMARK                            x       y       z     vdW  Elec       q    Type
REMARK                         _______ _______ _______ _____ _____    ______ ____
ROOT
ATOM      1  C   UNL     1      -0.615  -6.270  16.528  0.00  0.00    +0.000 C 
ATOM      2  H   UNL     1      -1.663  -6.213  16.211  0.00  0.00    +0.000 HD
ATOM      3  H   UNL     1      -0.502  -5.611  17.397  0.00  0.00    +0.000 HD
ENDROOT
BRANCH   1   4
ATOM      4  C   UNL     1       0.295  -5.786  15.396  0.00  0.00    +0.000 C 
ATOM      5  H   UNL     1      -0.287  -5.692  14.471  0.00  0.00    +0.000 HD
ATOM      6  H   UNL     1       1.079  -6.531  15.212  0.00  0.00    +0.000 HD
BRANCH   4   7
ATOM      7  C   UNL     1       0.938  -4.442  15.737  0.00  0.00    +0.000 C 
ATOM      8  H   UNL     1       1.296  -4.453  16.773  0.00  0.00    +0.000 HD
ATOM      9  H   UNL     1       0.193  -3.642  15.659  0.00  0.00    +0.000 HD
BRANCH   7  10
ATOM     10  C   UNL     1       2.104  -4.132  14.812  0.00  0.00    +0.000 C 
ATOM     11  H   UNL     1       1.894  -3.249  14.199  0.00  0.00    +0.000 HD
ATOM     12  H   UNL     1       2.309  -4.974  14.143  0.00  0.00    +0.000 HD
ATOM     13  H   UNL     1       3.009  -3.933  15.395  0.00  0.00    +0.000 HD
ENDBRANCH   7  10
ENDBRANCH   4   7
ENDBRANCH   1   4
BRANCH   1  14
ATOM     14  C   UNL     1      -0.278  -7.708  16.934  0.00  0.00    +0.000 C 
ATOM     15  H   UNL     1      -1.059  -8.385  16.567  0.00  0.00    +0.000 HD
ATOM     16  H   UNL     1       0.655  -8.012  16.441  0.00  0.00    +0.000 HD
BRANCH  14  17
ATOM     17  C   UNL     1      -0.130  -7.870  18.443  0.00  0.00    +0.000 C 
ATOM     18  H   UNL     1       0.781  -7.367  18.785  0.00  0.00    +0.000 HD
ATOM     19  H   UNL     1      -0.988  -7.414  18.950  0.00  0.00    +0.000 HD
BRANCH  17  21
ATOM     20  O   UNL     1       0.169  -9.621  20.054  0.00  0.00    +0.000 OA
ATOM     21  C   UNL     1      -0.045  -9.319  18.878  0.00  0.00    +0.000 C 
BRANCH  21  22
ATOM     22  C   UNL     1      -0.248 -10.377  17.827  0.00  0.00    +0.000 C 
ATOM     23  H   UNL     1       0.701 -10.877  17.617  0.00  0.00    +0.000 HD
ATOM     24  H   UNL     1      -0.968 -11.116  18.186  0.00  0.00    +0.000 HD
ATOM     25  H   UNL     1      -0.612  -9.912  16.907  0.00  0.00    +0.000 HD
ENDBRANCH  21  22
ENDBRANCH  17  21
ENDBRANCH  14  17
ENDBRANCH   1  14
TORSDOF 7
ENDMDL
MODEL 8
REMARK VINA RESULT:    -3.731     25.939     26.777
REMARK INTER + INTRA:          -5.232
REMARK INTER:                  -5.040
REMARK INTRA:                  -0.192
REMARK UNBOUND:                -0.192
REMARK  Name = 8093
REMARK  7 active torsions:
REMARK  status: ('A' for Active; 'I' for Inactive)
REMARK    1  A    between atoms: C_2  and  C_3
REMARK    2  A    between atoms: C_2  and  C_4
REMARK    3  A    between atoms: C_3  and  C_5
REMARK    4  A    between atoms: C_4  and  C_6
REMARK    5  A    between atoms: C_5  and  C_7
REMARK    6  A    between atoms: C_6  and  C_8
REMARK    7  A    between atoms: C_8  and  C_9
REMARK                            x       y       z     vdW  Elec       q    Type
REMARK                         _______ _______ _______ _____ _____    ______ ____
ROOT
ATOM      1  C   UNL     1      -5.037  -6.610  -9.911  0.00  0.00    +0.000 C 
ATOM      2  H   UNL     1      -5.275  -5.901 -10.713  0.00  0.00    +0.000 HD
ATOM      3  H   UNL     1      -5.381  -7.598 -10.239  0.00  0.00    +0.000 HD
ENDROOT
BRANCH   1   4
ATOM      4  C   UNL     1      -5.774  -6.208  -8.631  0.00  0.00    +0.000 C 
ATOM      5  H   UNL     1      -5.340  -5.284  -8.230  0.00  0.00    +0.000 HD
ATOM      6  H   UNL     1      -5.636  -6.986  -7.870  0.00  0.00    +0.000 HD
BRANCH   4   7
ATOM      7  C   UNL     1      -7.267  -6.006  -8.890  0.00  0.00    +0.000 C 
ATOM      8  H   UNL     1      -7.734  -6.965  -9.142  0.00  0.00    +0.000 HD
ATOM      9  H   UNL     1      -7.409  -5.339  -9.747  0.00  0.00    +0.000 HD
BRANCH   7  10
ATOM     10  C   UNL     1      -7.967  -5.416  -7.676  0.00  0.00    +0.000 C 
ATOM     11  H   UNL     1      -8.708  -4.667  -7.976  0.00  0.00    +0.000 HD
ATOM     12  H   UNL     1      -7.249  -4.937  -7.002  0.00  0.00    +0.000 HD
ATOM     13  H   UNL     1      -8.485  -6.202  -7.117  0.00  0.00    +0.000 HD
ENDBRANCH   7  10
ENDBRANCH   4   7
ENDBRANCH   1   4
BRANCH   1  14
ATOM     14  C   UNL     1      -3.522  -6.645  -9.691  0.00  0.00    +0.000 C 
ATOM     15  H   UNL     1      -3.014  -6.210 -10.560  0.00  0.00    +0.000 HD
ATOM     16  H   UNL     1      -3.268  -6.012  -8.831  0.00  0.00    +0.000 HD
BRANCH  14  17
ATOM     17  C   UNL     1      -3.000  -8.058  -9.450  0.00  0.00    +0.000 C 
ATOM     18  H   UNL     1      -1.910  -8.040  -9.341  0.00  0.00    +0.000 HD
ATOM     19  H   UNL     1      -3.434  -8.461  -8.529  0.00  0.00    +0.000 HD
BRANCH  17  21
ATOM     20  O   UNL     1      -3.045  -8.743 -11.748  0.00  0.00    +0.000 OA
ATOM     21  C   UNL     1      -3.331  -9.013 -10.580  0.00  0.00    +0.000 C 
BRANCH  21  22
ATOM     22  C   UNL     1      -4.007 -10.309 -10.223  0.00  0.00    +0.000 C 
ATOM     23  H   UNL     1      -3.419 -10.836  -9.467  0.00  0.00    +0.000 HD
ATOM     24  H   UNL     1      -5.002 -10.104  -9.820  0.00  0.00    +0.000 HD
ATOM     25  H   UNL     1      -4.083 -10.939 -11.113  0.00  0.00    +0.000 HD
ENDBRANCH  21  22
ENDBRANCH  17  21
ENDBRANCH  14  17
ENDBRANCH   1  14
TORSDOF 7
ENDMDL
MODEL 9
REMARK VINA RESULT:    -3.715      3.367      4.935
REMARK INTER + INTRA:          -5.209
REMARK INTER:                  -5.018
REMARK INTRA:                  -0.191
REMARK UNBOUND:                -0.192
REMARK  Name = 8093
REMARK  7 active torsions:
REMARK  status: ('A' for Active; 'I' for Inactive)
REMARK    1  A    between atoms: C_2  and  C_3
REMARK    2  A    between atoms: C_2  and  C_4
REMARK    3  A    between atoms: C_3  and  C_5
REMARK    4  A    between atoms: C_4  and  C_6
REMARK    5  A    between atoms: C_5  and  C_7
REMARK    6  A    between atoms: C_6  and  C_8
REMARK    7  A    between atoms: C_8  and  C_9
REMARK                            x       y       z     vdW  Elec       q    Type
REMARK                         _______ _______ _______ _____ _____    ______ ____
ROOT
ATOM      1  C   UNL     1       2.305  -6.813  14.518  0.00  0.00    +0.000 C 
ATOM      2  H   UNL     1       3.230  -6.810  15.107  0.00  0.00    +0.000 HD
ATOM      3  H   UNL     1       1.517  -7.235  15.154  0.00  0.00    +0.000 HD
ENDROOT
BRANCH   1   4
ATOM      4  C   UNL     1       2.486  -7.691  13.277  0.00  0.00    +0.000 C 
ATOM      5  H   UNL     1       2.457  -7.065  12.376  0.00  0.00    +0.000 HD
ATOM      6  H   UNL     1       1.651  -8.400  13.205  0.00  0.00    +0.000 HD
BRANCH   4   7
ATOM      7  C   UNL     1       3.805  -8.460  13.328  0.00  0.00    +0.000 C 
ATOM      8  H   UNL     1       4.141  -8.692  12.310  0.00  0.00    +0.000 HD
ATOM      9  H   UNL     1       3.661  -9.414  13.847  0.00  0.00    +0.000 HD
BRANCH   7  10
ATOM     10  C   UNL     1       4.888  -7.663  14.038  0.00  0.00    +0.000 C 
ATOM     11  H   UNL     1       4.623  -7.490  15.086  0.00  0.00    +0.000 HD
ATOM     12  H   UNL     1       5.039  -6.691  13.557  0.00  0.00    +0.000 HD
ATOM     13  H   UNL     1       5.837  -8.206  14.013  0.00  0.00    +0.000 HD
ENDBRANCH   7  10
ENDBRANCH   4   7
ENDBRANCH   1   4
BRANCH   1  14
ATOM     14  C   UNL     1       1.935  -5.378  14.133  0.00  0.00    +0.000 C 
ATOM     15  H   UNL     1       2.634  -5.011  13.371  0.00  0.00    +0.000 HD
ATOM     16  H   UNL     1       0.940  -5.374  13.671  0.00  0.00    +0.000 HD
BRANCH  14  17
ATOM     17  C   UNL     1       1.942  -4.432  15.329  0.00  0.00    +0.000 C 
ATOM     18  H   UNL     1       0.973  -4.467  15.839  0.00  0.00    +0.000 HD
ATOM     19  H   UNL     1       2.718  -4.739  16.040  0.00  0.00    +0.000 HD
BRANCH  17  21
ATOM     20  O   UNL     1       1.281  -2.186  14.814  0.00  0.00    +0.000 OA
ATOM     21  C   UNL     1       2.205  -2.990  14.944  0.00  0.00    +0.000 C 
BRANCH  21  22
ATOM     22  C   UNL     1       3.637  -2.572  14.742  0.00  0.00    +0.000 C 
ATOM     23  H   UNL     1       3.998  -2.939  13.778  0.00  0.00    +0.000 HD
ATOM     24  H   UNL     1       3.705  -1.482  14.756  0.00  0.00    +0.000 HD
ATOM     25  H   UNL     1       4.257  -2.998  15.535  0.00  0.00    +0.000 HD
ENDBRANCH  21  22
ENDBRANCH  17  21
ENDBRANCH  14  17
ENDBRANCH   1  14
TORSDOF 7
ENDMDL
MODEL 10
REMARK VINA RESULT:    -3.689     16.156     17.062
REMARK INTER + INTRA:          -5.174
REMARK INTER:                  -5.015
REMARK INTRA:                  -0.160
REMARK UNBOUND:                -0.192
REMARK  Name = 8093
REMARK  7 active torsions:
REMARK  status: ('A' for Active; 'I' for Inactive)
REMARK    1  A    between atoms: C_2  and  C_3
REMARK    2  A    between atoms: C_2  and  C_4
REMARK    3  A    between atoms: C_3  and  C_5
REMARK    4  A    between atoms: C_4  and  C_6
REMARK    5  A    between atoms: C_5  and  C_7
REMARK    6  A    between atoms: C_6  and  C_8
REMARK    7  A    between atoms: C_8  and  C_9
REMARK                            x       y       z     vdW  Elec       q    Type
REMARK                         _______ _______ _______ _____ _____    ______ ____
ROOT
ATOM      1  C   UNL     1       4.847 -12.341  -0.734  0.00  0.00    +0.000 C 
ATOM      2  H   UNL     1       4.277 -13.148  -1.210  0.00  0.00    +0.000 HD
ATOM      3  H   UNL     1       4.838 -11.487  -1.422  0.00  0.00    +0.000 HD
ENDROOT
BRANCH   1   4
ATOM      4  C   UNL     1       6.291 -12.796  -0.503  0.00  0.00    +0.000 C 
ATOM      5  H   UNL     1       6.654 -13.335  -1.388  0.00  0.00    +0.000 HD
ATOM      6  H   UNL     1       6.323 -13.500   0.339  0.00  0.00    +0.000 HD
BRANCH   4   7
ATOM      7  C   UNL     1       7.208 -11.609  -0.211  0.00  0.00    +0.000 C 
ATOM      8  H   UNL     1       7.431 -11.565   0.861  0.00  0.00    +0.000 HD
ATOM      9  H   UNL     1       6.702 -10.674  -0.477  0.00  0.00    +0.000 HD
BRANCH   7  10
ATOM     10  C   UNL     1       8.512 -11.709  -0.987  0.00  0.00    +0.000 C 
ATOM     11  H   UNL     1       8.600 -12.680  -1.484  0.00  0.00    +0.000 HD
ATOM     12  H   UNL     1       9.374 -11.583  -0.323  0.00  0.00    +0.000 HD
ATOM     13  H   UNL     1       8.558 -10.929  -1.754  0.00  0.00    +0.000 HD
ENDBRANCH   7  10
ENDBRANCH   4   7
ENDBRANCH   1   4
BRANCH   1  14
ATOM     14  C   UNL     1       4.174 -11.943   0.583  0.00  0.00    +0.000 C 
ATOM     15  H   UNL     1       4.602 -10.999   0.943  0.00  0.00    +0.000 HD
ATOM     16  H   UNL     1       3.109 -11.752   0.399  0.00  0.00    +0.000 HD
BRANCH  14  17
ATOM     17  C   UNL     1       4.320 -13.013   1.660  0.00  0.00    +0.000 C 
ATOM     18  H   UNL     1       4.223 -14.008   1.213  0.00  0.00    +0.000 HD
ATOM     19  H   UNL     1       5.308 -12.937   2.126  0.00  0.00    +0.000 HD
BRANCH  17  21
ATOM     20  O   UNL     1       2.684 -11.838   2.962  0.00  0.00    +0.000 OA
ATOM     21  C   UNL     1       3.277 -12.898   2.754  0.00  0.00    +0.000 C 
BRANCH  21  22
ATOM     22  C   UNL     1       2.978 -14.131   3.564  0.00  0.00    +0.000 C 
ATOM     23  H   UNL     1       3.650 -14.180   4.424  0.00  0.00    +0.000 HD
ATOM     24  H   UNL     1       1.946 -14.093   3.920  0.00  0.00    +0.000 HD
ATOM     25  H   UNL     1       3.131 -15.020   2.946  0.00  0.00    +0.000 HD
ENDBRANCH  21  22
ENDBRANCH  17  21
ENDBRANCH  14  17
ENDBRANCH   1  14
TORSDOF 7
ENDMDL
