MODEL 1
REMARK VINA RESULT:    -3.245      0.000      0.000
REMARK INTER + INTRA:          -3.720
REMARK INTER:                  -3.720
REMARK INTRA:                   0.000
REMARK UNBOUND:                 0.000
REMARK  Name = 179
REMARK  4 active torsions:
REMARK  status: ('A' for Active; 'I' for Inactive)
REMARK    1  A    between atoms: O_1  and  C_3
REMARK    2  A    between atoms: C_3  and  C_4
REMARK    3  A    between atoms: C_3  and  C_5
REMARK    4  A    between atoms: C_4  and  C_6
REMARK                            x       y       z     vdW  Elec       q    Type
REMARK                         _______ _______ _______ _____ _____    ______ ____
ROOT
ATOM      1  C   UNL     1       5.622  -3.255   0.683  0.00  0.00    +0.000 C 
ATOM      2  H   UNL     1       5.917  -2.201   0.718  0.00  0.00    +0.000 HD
ENDROOT
BRANCH   1   3
ATOM      3  C   UNL     1       4.220  -3.439   1.236  0.00  0.00    +0.000 C 
ATOM      4  H   UNL     1       3.468  -3.261   0.460  0.00  0.00    +0.000 HD
ATOM      5  H   UNL     1       4.020  -2.757   2.067  0.00  0.00    +0.000 HD
ATOM      6  H   UNL     1       4.077  -4.466   1.588  0.00  0.00    +0.000 HD
ENDBRANCH   1   3
BRANCH   1   7
ATOM      7  O   UNL     1       6.519  -3.994   1.497  0.00  0.00    +0.000 OA
ATOM      8  H   UNL     1       6.454  -3.637   2.399  0.00  0.00    +0.000 HD
ENDBRANCH   1   7
BRANCH   1  10
ATOM      9  O   UNL     1       6.346  -4.773  -1.048  0.00  0.00    +0.000 OA
ATOM     10  C   UNL     1       5.725  -3.752  -0.752  0.00  0.00    +0.000 C 
BRANCH  10  11
ATOM     11  C   UNL     1       5.024  -2.941  -1.813  0.00  0.00    +0.000 C 
ATOM     12  H   UNL     1       4.728  -1.973  -1.404  0.00  0.00    +0.000 HD
ATOM     13  H   UNL     1       4.132  -3.475  -2.151  0.00  0.00    +0.000 HD
ATOM     14  H   UNL     1       5.689  -2.803  -2.671  0.00  0.00    +0.000 HD
ENDBRANCH  10  11
ENDBRANCH   1  10
TORSDOF 4
ENDMDL
MODEL 2
REMARK VINA RESULT:    -3.218      8.209      8.688
REMARK INTER + INTRA:          -3.689
REMARK INTER:                  -3.689
REMARK INTRA:                   0.000
REMARK UNBOUND:                 0.000
REMARK  Name = 179
REMARK  4 active torsions:
REMARK  status: ('A' for Active; 'I' for Inactive)
REMARK    1  A    between atoms: O_1  and  C_3
REMARK    2  A    between atoms: C_3  and  C_4
REMARK    3  A    between atoms: C_3  and  C_5
REMARK    4  A    between atoms: C_4  and  C_6
REMARK                            x       y       z     vdW  Elec       q    Type
REMARK                         _______ _______ _______ _____ _____    ______ ____
ROOT
ATOM      1  C   UNL     1       4.268 -12.185   0.679  0.00  0.00    +0.000 C 
ATOM      2  H   UNL     1       4.215 -13.274   0.787  0.00  0.00    +0.000 HD
ENDROOT
BRANCH   1   3
ATOM      3  C   UNL     1       4.282 -11.791  -0.787  0.00  0.00    +0.000 C 
ATOM      4  H   UNL     1       3.354 -12.097  -1.282  0.00  0.00    +0.000 HD
ATOM      5  H   UNL     1       5.120 -12.248  -1.321  0.00  0.00    +0.000 HD
ATOM      6  H   UNL     1       4.356 -10.703  -0.893  0.00  0.00    +0.000 HD
ENDBRANCH   1   3
BRANCH   1   7
ATOM      7  O   UNL     1       5.479 -11.739   1.269  0.00  0.00    +0.000 OA
ATOM      8  H   UNL     1       5.253 -11.040   1.906  0.00  0.00    +0.000 HD
ENDBRANCH   1   7
BRANCH   1  10
ATOM      9  O   UNL     1       2.435 -10.636   0.930  0.00  0.00    +0.000 OA
ATOM     10  C   UNL     1       3.094 -11.555   1.415  0.00  0.00    +0.000 C 
BRANCH  10  11
ATOM     11  C   UNL     1       2.758 -12.110   2.776  0.00  0.00    +0.000 C 
ATOM     12  H   UNL     1       3.364 -12.996   2.976  0.00  0.00    +0.000 HD
ATOM     13  H   UNL     1       1.700 -12.387   2.807  0.00  0.00    +0.000 HD
ATOM     14  H   UNL     1       2.936 -11.348   3.540  0.00  0.00    +0.000 HD
ENDBRANCH  10  11
ENDBRANCH   1  10
TORSDOF 4
ENDMDL
MODEL 3
REMARK VINA RESULT:    -3.179      8.094      8.366
REMARK INTER + INTRA:          -3.644
REMARK INTER:                  -3.644
REMARK INTRA:                   0.000
REMARK UNBOUND:                 0.000
REMARK  Name = 179
REMARK  4 active torsions:
REMARK  status: ('A' for Active; 'I' for Inactive)
REMARK    1  A    between atoms: O_1  and  C_3
REMARK    2  A    between atoms: C_3  and  C_4
REMARK    3  A    between atoms: C_3  and  C_5
REMARK    4  A    between atoms: C_4  and  C_6
REMARK                            x       y       z     vdW  Elec       q    Type
REMARK                         _______ _______ _______ _____ _____    ______ ____
ROOT
ATOM      1  C   UNL     1       2.853 -11.490   1.273  0.00  0.00    +0.000 C 
ATOM      2  H   UNL     1       2.004 -11.863   0.689  0.00  0.00    +0.000 HD
ENDROOT
BRANCH   1   3
ATOM      3  C   UNL     1       2.768 -11.974   2.710  0.00  0.00    +0.000 C 
ATOM      4  H   UNL     1       2.088 -11.345   3.295  0.00  0.00    +0.000 HD
ATOM      5  H   UNL     1       3.746 -11.964   3.199  0.00  0.00    +0.000 HD
ATOM      6  H   UNL     1       2.372 -12.994   2.750  0.00  0.00    +0.000 HD
ENDBRANCH   1   3
BRANCH   1   7
ATOM      7  O   UNL     1       2.799 -10.073   1.280  0.00  0.00    +0.000 OA
ATOM      8  H   UNL     1       2.109  -9.804   0.650  0.00  0.00    +0.000 HD
ENDBRANCH   1   7
BRANCH   1  10
ATOM      9  O   UNL     1       5.075 -12.431   1.251  0.00  0.00    +0.000 OA
ATOM     10  C   UNL     1       4.147 -11.937   0.610  0.00  0.00    +0.000 C 
BRANCH  10  11
ATOM     11  C   UNL     1       4.252 -11.758  -0.884  0.00  0.00    +0.000 C 
ATOM     12  H   UNL     1       3.684 -12.538  -1.392  0.00  0.00    +0.000 HD
ATOM     13  H   UNL     1       5.301 -11.824  -1.187  0.00  0.00    +0.000 HD
ATOM     14  H   UNL     1       3.875 -10.770  -1.164  0.00  0.00    +0.000 HD
ENDBRANCH  10  11
ENDBRANCH   1  10
TORSDOF 4
ENDMDL
MODEL 4
REMARK VINA RESULT:    -3.129      8.839      9.136
REMARK INTER + INTRA:          -3.586
REMARK INTER:                  -3.586
REMARK INTRA:                   0.000
REMARK UNBOUND:                 0.000
REMARK  Name = 179
REMARK  4 active torsions:
REMARK  status: ('A' for Active; 'I' for Inactive)
REMARK    1  A    between atoms: O_1  and  C_3
REMARK    2  A    between atoms: C_3  and  C_4
REMARK    3  A    between atoms: C_3  and  C_5
REMARK    4  A    between atoms: C_4  and  C_6
REMARK                            x       y       z     vdW  Elec       q    Type
REMARK                         _______ _______ _______ _____ _____    ______ ____
ROOT
ATOM      1  C   UNL     1       3.838 -12.520   2.604  0.00  0.00    +0.000 C 
ATOM      2  H   UNL     1       4.192 -11.751   3.299  0.00  0.00    +0.000 HD
ENDROOT
BRANCH   1   3
ATOM      3  C   UNL     1       2.506 -13.086   3.064  0.00  0.00    +0.000 C 
ATOM      4  H   UNL     1       1.676 -12.631   2.511  0.00  0.00    +0.000 HD
ATOM      5  H   UNL     1       2.339 -12.912   4.131  0.00  0.00    +0.000 HD
ATOM      6  H   UNL     1       2.460 -14.164   2.877  0.00  0.00    +0.000 HD
ENDBRANCH   1   3
BRANCH   1   7
ATOM      7  O   UNL     1       4.785 -13.576   2.589  0.00  0.00    +0.000 OA
ATOM      8  H   UNL     1       4.390 -14.328   3.062  0.00  0.00    +0.000 HD
ENDBRANCH   1   7
BRANCH   1  10
ATOM      9  O   UNL     1       4.539 -12.198   0.318  0.00  0.00    +0.000 OA
ATOM     10  C   UNL     1       3.736 -11.921   1.209  0.00  0.00    +0.000 C 
BRANCH  10  11
ATOM     11  C   UNL     1       2.599 -10.965   0.952  0.00  0.00    +0.000 C 
ATOM     12  H   UNL     1       1.656 -11.419   1.264  0.00  0.00    +0.000 HD
ATOM     13  H   UNL     1       2.549 -10.735  -0.117  0.00  0.00    +0.000 HD
ATOM     14  H   UNL     1       2.769 -10.032   1.497  0.00  0.00    +0.000 HD
ENDBRANCH  10  11
ENDBRANCH   1  10
TORSDOF 4
ENDMDL
MODEL 5
REMARK VINA RESULT:    -3.116      6.701      7.255
REMARK INTER + INTRA:          -3.571
REMARK INTER:                  -3.571
REMARK INTRA:                   0.000
REMARK UNBOUND:                 0.000
REMARK  Name = 179
REMARK  4 active torsions:
REMARK  status: ('A' for Active; 'I' for Inactive)
REMARK    1  A    between atoms: O_1  and  C_3
REMARK    2  A    between atoms: C_3  and  C_4
REMARK    3  A    between atoms: C_3  and  C_5
REMARK    4  A    between atoms: C_4  and  C_6
REMARK                            x       y       z     vdW  Elec       q    Type
REMARK                         _______ _______ _______ _____ _____    ______ ____
ROOT
ATOM      1  C   UNL     1       8.799  -9.541  -0.823  0.00  0.00    +0.000 C 
ATOM      2  H   UNL     1       7.957  -9.281  -1.474  0.00  0.00    +0.000 HD
ENDROOT
BRANCH   1   3
ATOM      3  C   UNL     1       9.056 -11.037  -0.849  0.00  0.00    +0.000 C 
ATOM      4  H   UNL     1       8.338 -11.568  -0.214  0.00  0.00    +0.000 HD
ATOM      5  H   UNL     1      10.064 -11.281  -0.501  0.00  0.00    +0.000 HD
ATOM      6  H   UNL     1       8.936 -11.431  -1.863  0.00  0.00    +0.000 HD
ENDBRANCH   1   3
BRANCH   1   7
ATOM      7  O   UNL     1       8.464  -9.173   0.506  0.00  0.00    +0.000 OA
ATOM      8  H   UNL     1       7.534  -9.418   0.649  0.00  0.00    +0.000 HD
ENDBRANCH   1   7
BRANCH   1  10
ATOM      9  O   UNL     1      10.103  -7.534  -1.138  0.00  0.00    +0.000 OA
ATOM     10  C   UNL     1      10.027  -8.756  -1.263  0.00  0.00    +0.000 C 
BRANCH  10  11
ATOM     11  C   UNL     1      11.167  -9.542  -1.861  0.00  0.00    +0.000 C 
ATOM     12  H   UNL     1      11.322 -10.461  -1.293  0.00  0.00    +0.000 HD
ATOM     13  H   UNL     1      12.081  -8.942  -1.827  0.00  0.00    +0.000 HD
ATOM     14  H   UNL     1      10.947  -9.774  -2.907  0.00  0.00    +0.000 HD
ENDBRANCH  10  11
ENDBRANCH   1  10
TORSDOF 4
ENDMDL
MODEL 6
REMARK VINA RESULT:    -3.078     24.923     25.410
REMARK INTER + INTRA:          -3.528
REMARK INTER:                  -3.528
REMARK INTRA:                   0.000
REMARK UNBOUND:                 0.000
REMARK  Name = 179
REMARK  4 active torsions:
REMARK  status: ('A' for Active; 'I' for Inactive)
REMARK    1  A    between atoms: O_1  and  C_3
REMARK    2  A    between atoms: C_3  and  C_4
REMARK    3  A    between atoms: C_3  and  C_5
REMARK    4  A    between atoms: C_4  and  C_6
REMARK                            x       y       z     vdW  Elec       q    Type
REMARK                         _______ _______ _______ _____ _____    ______ ____
ROOT
ATOM      1  C   UNL     1     -17.826  -2.036   8.969  0.00  0.00    +0.000 C 
ATOM      2  H   UNL     1     -17.039  -1.403   9.393  0.00  0.00    +0.000 HD
ENDROOT
BRANCH   1   3
ATOM      3  C   UNL     1     -18.910  -2.304   9.998  0.00  0.00    +0.000 C 
ATOM      4  H   UNL     1     -19.377  -3.280   9.828  0.00  0.00    +0.000 HD
ATOM      5  H   UNL     1     -19.694  -1.542   9.968  0.00  0.00    +0.000 HD
ATOM      6  H   UNL     1     -18.487  -2.326  11.007  0.00  0.00    +0.000 HD
ENDBRANCH   1   3
BRANCH   1   7
ATOM      7  O   UNL     1     -17.248  -3.278   8.602  0.00  0.00    +0.000 OA
ATOM      8  H   UNL     1     -16.366  -3.092   8.236  0.00  0.00    +0.000 HD
ENDBRANCH   1   7
BRANCH   1  10
ATOM      9  O   UNL     1     -17.676  -0.756   6.928  0.00  0.00    +0.000 OA
ATOM     10  C   UNL     1     -18.391  -1.361   7.727  0.00  0.00    +0.000 C 
BRANCH  10  11
ATOM     11  C   UNL     1     -19.878  -1.467   7.503  0.00  0.00    +0.000 C 
ATOM     12  H   UNL     1     -20.261  -0.525   7.106  0.00  0.00    +0.000 HD
ATOM     13  H   UNL     1     -20.376  -1.684   8.452  0.00  0.00    +0.000 HD
ATOM     14  H   UNL     1     -20.090  -2.285   6.809  0.00  0.00    +0.000 HD
ENDBRANCH  10  11
ENDBRANCH   1  10
TORSDOF 4
ENDMDL
MODEL 7
REMARK VINA RESULT:    -3.072     25.708     26.395
REMARK INTER + INTRA:          -3.521
REMARK INTER:                  -3.521
REMARK INTRA:                   0.000
REMARK UNBOUND:                 0.000
REMARK  Name = 179
REMARK  4 active torsions:
REMARK  status: ('A' for Active; 'I' for Inactive)
REMARK    1  A    between atoms: O_1  and  C_3
REMARK    2  A    between atoms: C_3  and  C_4
REMARK    3  A    between atoms: C_3  and  C_5
REMARK    4  A    between atoms: C_4  and  C_6
REMARK                            x       y       z     vdW  Elec       q    Type
REMARK                         _______ _______ _______ _____ _____    ______ ____
ROOT
ATOM      1  C   UNL     1      -9.374   8.288  18.111  0.00  0.00    +0.000 C 
ATOM      2  H   UNL     1     -10.190   8.929  18.462  0.00  0.00    +0.000 HD
ENDROOT
BRANCH   1   3
ATOM      3  C   UNL     1      -8.419   9.072  17.227  0.00  0.00    +0.000 C 
ATOM      4  H   UNL     1      -8.239   8.544  16.284  0.00  0.00    +0.000 HD
ATOM      5  H   UNL     1      -7.455   9.234  17.716  0.00  0.00    +0.000 HD
ATOM      6  H   UNL     1      -8.846  10.047  16.969  0.00  0.00    +0.000 HD
ENDBRANCH   1   3
BRANCH   1   7
ATOM      7  O   UNL     1      -9.934   7.240  17.337  0.00  0.00    +0.000 OA
ATOM      8  H   UNL     1      -9.758   6.406  17.805  0.00  0.00    +0.000 HD
ENDBRANCH   1   7
BRANCH   1  10
ATOM      9  O   UNL     1      -8.997   6.621  19.814  0.00  0.00    +0.000 OA
ATOM     10  C   UNL     1      -8.657   7.693  19.314  0.00  0.00    +0.000 C 
BRANCH  10  11
ATOM     11  C   UNL     1      -7.495   8.471  19.878  0.00  0.00    +0.000 C 
ATOM     12  H   UNL     1      -7.136   9.189  19.138  0.00  0.00    +0.000 HD
ATOM     13  H   UNL     1      -6.684   7.783  20.133  0.00  0.00    +0.000 HD
ATOM     14  H   UNL     1      -7.805   8.990  20.789  0.00  0.00    +0.000 HD
ENDBRANCH  10  11
ENDBRANCH   1  10
TORSDOF 4
ENDMDL
MODEL 8
REMARK VINA RESULT:    -3.063      1.419      2.358
REMARK INTER + INTRA:          -3.511
REMARK INTER:                  -3.511
REMARK INTRA:                   0.000
REMARK UNBOUND:                 0.000
REMARK  Name = 179
REMARK  4 active torsions:
REMARK  status: ('A' for Active; 'I' for Inactive)
REMARK    1  A    between atoms: O_1  and  C_3
REMARK    2  A    between atoms: C_3  and  C_4
REMARK    3  A    between atoms: C_3  and  C_5
REMARK    4  A    between atoms: C_4  and  C_6
REMARK                            x       y       z     vdW  Elec       q    Type
REMARK                         _______ _______ _______ _____ _____    ______ ____
ROOT
ATOM      1  C   UNL     1       6.091  -3.642  -0.587  0.00  0.00    +0.000 C 
ATOM      2  H   UNL     1       6.074  -2.847  -1.340  0.00  0.00    +0.000 HD
ENDROOT
BRANCH   1   3
ATOM      3  C   UNL     1       7.212  -3.413   0.411  0.00  0.00    +0.000 C 
ATOM      4  H   UNL     1       7.149  -2.409   0.845  0.00  0.00    +0.000 HD
ATOM      5  H   UNL     1       8.196  -3.521  -0.054  0.00  0.00    +0.000 HD
ATOM      6  H   UNL     1       7.141  -4.123   1.241  0.00  0.00    +0.000 HD
ENDBRANCH   1   3
BRANCH   1   7
ATOM      7  O   UNL     1       6.331  -4.875  -1.247  0.00  0.00    +0.000 OA
ATOM      8  H   UNL     1       5.622  -5.487  -0.989  0.00  0.00    +0.000 HD
ENDBRANCH   1   7
BRANCH   1  10
ATOM      9  O   UNL     1       4.520  -4.445   1.060  0.00  0.00    +0.000 OA
ATOM     10  C   UNL     1       4.735  -3.702   0.103  0.00  0.00    +0.000 C 
BRANCH  10  11
ATOM     11  C   UNL     1       3.651  -2.801  -0.433  0.00  0.00    +0.000 C 
ATOM     12  H   UNL     1       2.893  -3.396  -0.945  0.00  0.00    +0.000 HD
ATOM     13  H   UNL     1       4.085  -2.088  -1.140  0.00  0.00    +0.000 HD
ATOM     14  H   UNL     1       3.199  -2.238   0.389  0.00  0.00    +0.000 HD
ENDBRANCH  10  11
ENDBRANCH   1  10
TORSDOF 4
ENDMDL
MODEL 9
REMARK VINA RESULT:    -3.039     13.106     14.024
REMARK INTER + INTRA:          -3.484
REMARK INTER:                  -3.484
REMARK INTRA:                   0.000
REMARK UNBOUND:                 0.000
REMARK  Name = 179
REMARK  4 active torsions:
REMARK  status: ('A' for Active; 'I' for Inactive)
REMARK    1  A    between atoms: O_1  and  C_3
REMARK    2  A    between atoms: C_3  and  C_4
REMARK    3  A    between atoms: C_3  and  C_5
REMARK    4  A    between atoms: C_4  and  C_6
REMARK                            x       y       z     vdW  Elec       q    Type
REMARK                         _______ _______ _______ _____ _____    ______ ____
ROOT
ATOM      1  C   UNL     1       8.501 -13.368  -8.979  0.00  0.00    +0.000 C 
ATOM      2  H   UNL     1       9.014 -14.244  -8.565  0.00  0.00    +0.000 HD
ENDROOT
BRANCH   1   3
ATOM      3  C   UNL     1       8.972 -12.097  -8.295  0.00  0.00    +0.000 C 
ATOM      4  H   UNL     1       8.922 -11.244  -8.980  0.00  0.00    +0.000 HD
ATOM      5  H   UNL     1      10.002 -12.188  -7.938  0.00  0.00    +0.000 HD
ATOM      6  H   UNL     1       8.330 -11.859  -7.441  0.00  0.00    +0.000 HD
ENDBRANCH   1   3
BRANCH   1   7
ATOM      7  O   UNL     1       7.111 -13.512  -8.735  0.00  0.00    +0.000 OA
ATOM      8  H   UNL     1       6.944 -13.224  -7.821  0.00  0.00    +0.000 HD
ENDBRANCH   1   7
BRANCH   1  10
ATOM      9  O   UNL     1       7.815 -13.277 -11.291  0.00  0.00    +0.000 OA
ATOM     10  C   UNL     1       8.741 -13.316 -10.481  0.00  0.00    +0.000 C 
BRANCH  10  11
ATOM     11  C   UNL     1      10.175 -13.306 -10.948  0.00  0.00    +0.000 C 
ATOM     12  H   UNL     1      10.547 -12.281 -10.983  0.00  0.00    +0.000 HD
ATOM     13  H   UNL     1      10.236 -13.744 -11.949  0.00  0.00    +0.000 HD
ATOM     14  H   UNL     1      10.788 -13.909 -10.271  0.00  0.00    +0.000 HD
ENDBRANCH  10  11
ENDBRANCH   1  10
TORSDOF 4
ENDMDL
MODEL 10
REMARK VINA RESULT:    -3.004     20.312     21.461
REMARK INTER + INTRA:          -3.443
REMARK INTER:                  -3.443
REMARK INTRA:                   0.000
REMARK UNBOUND:                 0.000
REMARK  Name = 179
REMARK  4 active torsions:
REMARK  status: ('A' for Active; 'I' for Inactive)
REMARK    1  A    between atoms: O_1  and  C_3
REMARK    2  A    between atoms: C_3  and  C_4
REMARK    3  A    between atoms: C_3  and  C_5
REMARK    4  A    between atoms: C_4  and  C_6
REMARK                            x       y       z     vdW  Elec       q    Type
REMARK                         _______ _______ _______ _____ _____    ______ ____
ROOT
ATOM      1  C   UNL     1      -2.295 -12.631  16.544  0.00  0.00    +0.000 C 
ATOM      2  H   UNL     1      -2.093 -11.569  16.370  0.00  0.00    +0.000 HD
ENDROOT
BRANCH   1   3
ATOM      3  C   UNL     1      -1.027 -13.451  16.379  0.00  0.00    +0.000 C 
ATOM      4  H   UNL     1      -0.228 -12.849  15.933  0.00  0.00    +0.000 HD
ATOM      5  H   UNL     1      -1.190 -14.325  15.743  0.00  0.00    +0.000 HD
ATOM      6  H   UNL     1      -0.661 -13.794  17.352  0.00  0.00    +0.000 HD
ENDBRANCH   1   3
BRANCH   1   7
ATOM      7  O   UNL     1      -3.234 -13.070  15.575  0.00  0.00    +0.000 OA
ATOM      8  H   UNL     1      -3.980 -13.469  16.053  0.00  0.00    +0.000 HD
ENDBRANCH   1   7
BRANCH   1  10
ATOM      9  O   UNL     1      -2.300 -12.441  18.949  0.00  0.00    +0.000 OA
ATOM     10  C   UNL     1      -2.893 -12.802  17.933  0.00  0.00    +0.000 C 
BRANCH  10  11
ATOM     11  C   UNL     1      -4.259 -13.434  18.020  0.00  0.00    +0.000 C 
ATOM     12  H   UNL     1      -4.797 -13.285  17.082  0.00  0.00    +0.000 HD
ATOM     13  H   UNL     1      -4.824 -12.970  18.834  0.00  0.00    +0.000 HD
ATOM     14  H   UNL     1      -4.159 -14.501  18.236  0.00  0.00    +0.000 HD
ENDBRANCH  10  11
ENDBRANCH   1  10
TORSDOF 4
ENDMDL
