MODEL 1
REMARK VINA RESULT:    -3.857      0.000      0.000
REMARK INTER + INTRA:          -4.665
REMARK INTER:                  -4.660
REMARK INTRA:                  -0.005
REMARK UNBOUND:                -0.018
REMARK  Name = 31260
REMARK  5 active torsions:
REMARK  status: ('A' for Active; 'I' for Inactive)
REMARK    1  A    between atoms: O_1  and  C_6
REMARK    2  A    between atoms: C_2  and  C_3
REMARK    3  A    between atoms: C_2  and  C_4
REMARK    4  A    between atoms: C_2  and  C_5
REMARK    5  A    between atoms: C_3  and  C_6
REMARK                            x       y       z     vdW  Elec       q    Type
REMARK                         _______ _______ _______ _____ _____    ______ ____
ROOT
ATOM      1  C   UNL     1       4.605   7.784 -16.574  0.00  0.00    +0.000 C 
ATOM      2  H   UNL     1       4.490   8.826 -16.901  0.00  0.00    +0.000 HD
ENDROOT
BRANCH   1   3
ATOM      3  C   UNL     1       3.875   7.609 -15.241  0.00  0.00    +0.000 C 
ATOM      4  H   UNL     1       2.793   7.696 -15.391  0.00  0.00    +0.000 HD
ATOM      5  H   UNL     1       4.158   8.368 -14.505  0.00  0.00    +0.000 HD
ATOM      6  H   UNL     1       4.068   6.620 -14.812  0.00  0.00    +0.000 HD
ENDBRANCH   1   3
BRANCH   1   7
ATOM      7  C   UNL     1       6.097   7.501 -16.387  0.00  0.00    +0.000 C 
ATOM      8  H   UNL     1       6.281   6.733 -15.629  0.00  0.00    +0.000 HD
ATOM      9  H   UNL     1       6.619   8.409 -16.066  0.00  0.00    +0.000 HD
ATOM     10  H   UNL     1       6.550   7.171 -17.327  0.00  0.00    +0.000 HD
ENDBRANCH   1   7
BRANCH   1  11
ATOM     11  C   UNL     1       3.968   6.882 -17.643  0.00  0.00    +0.000 C 
ATOM     12  H   UNL     1       2.936   6.645 -17.354  0.00  0.00    +0.000 HD
ATOM     13  H   UNL     1       4.490   5.916 -17.669  0.00  0.00    +0.000 HD
BRANCH  11  14
ATOM     14  C   UNL     1       3.977   7.486 -19.041  0.00  0.00    +0.000 C 
ATOM     15  H   UNL     1       3.455   8.446 -19.083  0.00  0.00    +0.000 HD
ATOM     16  H   UNL     1       4.992   7.622 -19.422  0.00  0.00    +0.000 HD
BRANCH  14  17
ATOM     17  O   UNL     1       3.316   6.591 -19.928  0.00  0.00    +0.000 OA
ATOM     18  H   UNL     1       3.996   6.034 -20.344  0.00  0.00    +0.000 HD
ENDBRANCH  14  17
ENDBRANCH  11  14
ENDBRANCH   1  11
TORSDOF 5
ENDMDL
MODEL 2
REMARK VINA RESULT:    -3.533     33.531     34.562
REMARK INTER + INTRA:          -4.274
REMARK INTER:                  -4.203
REMARK INTRA:                  -0.071
REMARK UNBOUND:                -0.018
REMARK  Name = 31260
REMARK  5 active torsions:
REMARK  status: ('A' for Active; 'I' for Inactive)
REMARK    1  A    between atoms: O_1  and  C_6
REMARK    2  A    between atoms: C_2  and  C_3
REMARK    3  A    between atoms: C_2  and  C_4
REMARK    4  A    between atoms: C_2  and  C_5
REMARK    5  A    between atoms: C_3  and  C_6
REMARK                            x       y       z     vdW  Elec       q    Type
REMARK                         _______ _______ _______ _____ _____    ______ ____
ROOT
ATOM      1  C   UNL     1       1.964  -4.804  15.621  0.00  0.00    +0.000 C 
ATOM      2  H   UNL     1       2.555  -5.457  16.275  0.00  0.00    +0.000 HD
ENDROOT
BRANCH   1   3
ATOM      3  C   UNL     1       0.491  -4.919  16.022  0.00  0.00    +0.000 C 
ATOM      4  H   UNL     1      -0.004  -5.688  15.420  0.00  0.00    +0.000 HD
ATOM      5  H   UNL     1      -0.059  -3.986  15.864  0.00  0.00    +0.000 HD
ATOM      6  H   UNL     1       0.389  -5.208  17.073  0.00  0.00    +0.000 HD
ENDBRANCH   1   3
BRANCH   1   7
ATOM      7  C   UNL     1       2.144  -5.279  14.178  0.00  0.00    +0.000 C 
ATOM      8  H   UNL     1       1.794  -6.305  14.032  0.00  0.00    +0.000 HD
ATOM      9  H   UNL     1       3.202  -5.249  13.897  0.00  0.00    +0.000 HD
ATOM     10  H   UNL     1       1.597  -4.630  13.486  0.00  0.00    +0.000 HD
ENDBRANCH   1   7
BRANCH   1  11
ATOM     11  C   UNL     1       2.451  -3.362  15.828  0.00  0.00    +0.000 C 
ATOM     12  H   UNL     1       3.410  -3.373  16.363  0.00  0.00    +0.000 HD
ATOM     13  H   UNL     1       1.757  -2.828  16.490  0.00  0.00    +0.000 HD
BRANCH  11  14
ATOM     14  C   UNL     1       2.604  -2.574  14.534  0.00  0.00    +0.000 C 
ATOM     15  H   UNL     1       3.470  -1.907  14.552  0.00  0.00    +0.000 HD
ATOM     16  H   UNL     1       2.684  -3.228  13.663  0.00  0.00    +0.000 HD
BRANCH  14  17
ATOM     17  O   UNL     1       1.442  -1.774  14.347  0.00  0.00    +0.000 OA
ATOM     18  H   UNL     1       1.735  -0.893  14.055  0.00  0.00    +0.000 HD
ENDBRANCH  14  17
ENDBRANCH  11  14
ENDBRANCH   1  11
TORSDOF 5
ENDMDL
MODEL 3
REMARK VINA RESULT:    -3.428     27.809     28.702
REMARK INTER + INTRA:          -4.147
REMARK INTER:                  -4.095
REMARK INTRA:                  -0.052
REMARK UNBOUND:                -0.018
REMARK  Name = 31260
REMARK  5 active torsions:
REMARK  status: ('A' for Active; 'I' for Inactive)
REMARK    1  A    between atoms: O_1  and  C_6
REMARK    2  A    between atoms: C_2  and  C_3
REMARK    3  A    between atoms: C_2  and  C_4
REMARK    4  A    between atoms: C_2  and  C_5
REMARK    5  A    between atoms: C_3  and  C_6
REMARK                            x       y       z     vdW  Elec       q    Type
REMARK                         _______ _______ _______ _____ _____    ______ ____
ROOT
ATOM      1  C   UNL     1       3.474 -13.207   3.060  0.00  0.00    +0.000 C 
ATOM      2  H   UNL     1       4.064 -12.657   3.804  0.00  0.00    +0.000 HD
ENDROOT
BRANCH   1   3
ATOM      3  C   UNL     1       2.249 -12.366   2.693  0.00  0.00    +0.000 C 
ATOM      4  H   UNL     1       2.563 -11.442   2.194  0.00  0.00    +0.000 HD
ATOM      5  H   UNL     1       1.665 -12.072   3.571  0.00  0.00    +0.000 HD
ATOM      6  H   UNL     1       1.592 -12.905   2.002  0.00  0.00    +0.000 HD
ENDBRANCH   1   3
BRANCH   1   7
ATOM      7  C   UNL     1       3.024 -14.529   3.683  0.00  0.00    +0.000 C 
ATOM      8  H   UNL     1       3.828 -15.271   3.705  0.00  0.00    +0.000 HD
ATOM      9  H   UNL     1       2.198 -14.959   3.108  0.00  0.00    +0.000 HD
ATOM     10  H   UNL     1       2.672 -14.374   4.708  0.00  0.00    +0.000 HD
ENDBRANCH   1   7
BRANCH   1  11
ATOM     11  C   UNL     1       4.356 -13.414   1.818  0.00  0.00    +0.000 C 
ATOM     12  H   UNL     1       3.725 -13.438   0.920  0.00  0.00    +0.000 HD
ATOM     13  H   UNL     1       4.831 -14.403   1.864  0.00  0.00    +0.000 HD
BRANCH  11  14
ATOM     14  C   UNL     1       5.437 -12.354   1.648  0.00  0.00    +0.000 C 
ATOM     15  H   UNL     1       6.201 -12.652   0.926  0.00  0.00    +0.000 HD
ATOM     16  H   UNL     1       5.021 -11.391   1.342  0.00  0.00    +0.000 HD
BRANCH  14  17
ATOM     17  O   UNL     1       6.077 -12.151   2.902  0.00  0.00    +0.000 OA
ATOM     18  H   UNL     1       5.523 -12.565   3.586  0.00  0.00    +0.000 HD
ENDBRANCH  14  17
ENDBRANCH  11  14
ENDBRANCH   1  11
TORSDOF 5
ENDMDL
MODEL 4
REMARK VINA RESULT:    -3.238     23.700     24.434
REMARK INTER + INTRA:          -3.919
REMARK INTER:                  -3.890
REMARK INTRA:                  -0.029
REMARK UNBOUND:                -0.018
REMARK  Name = 31260
REMARK  5 active torsions:
REMARK  status: ('A' for Active; 'I' for Inactive)
REMARK    1  A    between atoms: O_1  and  C_6
REMARK    2  A    between atoms: C_2  and  C_3
REMARK    3  A    between atoms: C_2  and  C_4
REMARK    4  A    between atoms: C_2  and  C_5
REMARK    5  A    between atoms: C_3  and  C_6
REMARK                            x       y       z     vdW  Elec       q    Type
REMARK                         _______ _______ _______ _____ _____    ______ ____
ROOT
ATOM      1  C   UNL     1      10.703  -9.481  -1.145  0.00  0.00    +0.000 C 
ATOM      2  H   UNL     1      11.348  -9.635  -0.271  0.00  0.00    +0.000 HD
ENDROOT
BRANCH   1   3
ATOM      3  C   UNL     1      11.528  -9.727  -2.410  0.00  0.00    +0.000 C 
ATOM      4  H   UNL     1      10.962  -9.417  -3.295  0.00  0.00    +0.000 HD
ATOM      5  H   UNL     1      11.781 -10.783  -2.546  0.00  0.00    +0.000 HD
ATOM      6  H   UNL     1      12.457  -9.147  -2.395  0.00  0.00    +0.000 HD
ENDBRANCH   1   3
BRANCH   1   7
ATOM      7  C   UNL     1      10.206  -8.034  -1.126  0.00  0.00    +0.000 C 
ATOM      8  H   UNL     1      10.115  -7.640  -0.110  0.00  0.00    +0.000 HD
ATOM      9  H   UNL     1       9.218  -7.965  -1.594  0.00  0.00    +0.000 HD
ATOM     10  H   UNL     1      10.886  -7.384  -1.686  0.00  0.00    +0.000 HD
ENDBRANCH   1   7
BRANCH   1  11
ATOM     11  C   UNL     1       9.551 -10.496  -1.066  0.00  0.00    +0.000 C 
ATOM     12  H   UNL     1       9.809 -11.287  -0.351  0.00  0.00    +0.000 HD
ATOM     13  H   UNL     1       9.441 -11.005  -2.033  0.00  0.00    +0.000 HD
BRANCH  11  14
ATOM     14  C   UNL     1       8.214  -9.878  -0.678  0.00  0.00    +0.000 C 
ATOM     15  H   UNL     1       8.304  -8.819  -0.421  0.00  0.00    +0.000 HD
ATOM     16  H   UNL     1       7.469  -9.985  -1.470  0.00  0.00    +0.000 HD
BRANCH  14  17
ATOM     17  O   UNL     1       7.710 -10.563   0.463  0.00  0.00    +0.000 OA
ATOM     18  H   UNL     1       8.443 -11.074   0.847  0.00  0.00    +0.000 HD
ENDBRANCH  14  17
ENDBRANCH  11  14
ENDBRANCH   1  11
TORSDOF 5
ENDMDL
MODEL 5
REMARK VINA RESULT:    -3.045     31.244     32.334
REMARK INTER + INTRA:          -3.687
REMARK INTER:                  -3.678
REMARK INTRA:                  -0.009
REMARK UNBOUND:                -0.018
REMARK  Name = 31260
REMARK  5 active torsions:
REMARK  status: ('A' for Active; 'I' for Inactive)
REMARK    1  A    between atoms: O_1  and  C_6
REMARK    2  A    between atoms: C_2  and  C_3
REMARK    3  A    between atoms: C_2  and  C_4
REMARK    4  A    between atoms: C_2  and  C_5
REMARK    5  A    between atoms: C_3  and  C_6
REMARK                            x       y       z     vdW  Elec       q    Type
REMARK                         _______ _______ _______ _____ _____    ______ ____
ROOT
ATOM      1  C   UNL     1      -6.573 -13.701   6.005  0.00  0.00    +0.000 C 
ATOM      2  H   UNL     1      -6.777 -14.714   5.634  0.00  0.00    +0.000 HD
ENDROOT
BRANCH   1   3
ATOM      3  C   UNL     1      -5.064 -13.554   6.213  0.00  0.00    +0.000 C 
ATOM      4  H   UNL     1      -4.706 -12.636   5.735  0.00  0.00    +0.000 HD
ATOM      5  H   UNL     1      -4.498 -14.383   5.776  0.00  0.00    +0.000 HD
ATOM      6  H   UNL     1      -4.817 -13.488   7.278  0.00  0.00    +0.000 HD
ENDBRANCH   1   3
BRANCH   1   7
ATOM      7  C   UNL     1      -7.298 -13.523   7.340  0.00  0.00    +0.000 C 
ATOM      8  H   UNL     1      -7.447 -14.473   7.861  0.00  0.00    +0.000 HD
ATOM      9  H   UNL     1      -8.286 -13.079   7.179  0.00  0.00    +0.000 HD
ATOM     10  H   UNL     1      -6.736 -12.854   7.999  0.00  0.00    +0.000 HD
ENDBRANCH   1   7
BRANCH   1  11
ATOM     11  C   UNL     1      -7.053 -12.703   4.939  0.00  0.00    +0.000 C 
ATOM     12  H   UNL     1      -7.092 -11.695   5.373  0.00  0.00    +0.000 HD
ATOM     13  H   UNL     1      -8.088 -12.936   4.655  0.00  0.00    +0.000 HD
BRANCH  11  14
ATOM     14  C   UNL     1      -6.189 -12.681   3.685  0.00  0.00    +0.000 C 
ATOM     15  H   UNL     1      -5.272 -12.100   3.821  0.00  0.00    +0.000 HD
ATOM     16  H   UNL     1      -5.920 -13.688   3.355  0.00  0.00    +0.000 HD
BRANCH  14  17
ATOM     17  O   UNL     1      -6.932 -12.082   2.630  0.00  0.00    +0.000 OA
ATOM     18  H   UNL     1      -7.830 -12.454   2.654  0.00  0.00    +0.000 HD
ENDBRANCH  14  17
ENDBRANCH  11  14
ENDBRANCH   1  11
TORSDOF 5
ENDMDL
MODEL 6
REMARK VINA RESULT:    -3.016     26.214     27.111
REMARK INTER + INTRA:          -3.651
REMARK INTER:                  -3.616
REMARK INTRA:                  -0.035
REMARK UNBOUND:                -0.018
REMARK  Name = 31260
REMARK  5 active torsions:
REMARK  status: ('A' for Active; 'I' for Inactive)
REMARK    1  A    between atoms: O_1  and  C_6
REMARK    2  A    between atoms: C_2  and  C_3
REMARK    3  A    between atoms: C_2  and  C_4
REMARK    4  A    between atoms: C_2  and  C_5
REMARK    5  A    between atoms: C_3  and  C_6
REMARK                            x       y       z     vdW  Elec       q    Type
REMARK                         _______ _______ _______ _____ _____    ______ ____
ROOT
ATOM      1  C   UNL     1       3.320 -12.351   1.725  0.00  0.00    +0.000 C 
ATOM      2  H   UNL     1       3.007 -13.174   1.071  0.00  0.00    +0.000 HD
ENDROOT
BRANCH   1   3
ATOM      3  C   UNL     1       2.812 -12.634   3.140  0.00  0.00    +0.000 C 
ATOM      4  H   UNL     1       3.486 -12.186   3.878  0.00  0.00    +0.000 HD
ATOM      5  H   UNL     1       2.763 -13.705   3.361  0.00  0.00    +0.000 HD
ATOM      6  H   UNL     1       1.818 -12.201   3.298  0.00  0.00    +0.000 HD
ENDBRANCH   1   3
BRANCH   1   7
ATOM      7  C   UNL     1       2.696 -11.056   1.202  0.00  0.00    +0.000 C 
ATOM      8  H   UNL     1       1.605 -11.117   1.139  0.00  0.00    +0.000 HD
ATOM      9  H   UNL     1       3.069 -10.832   0.197  0.00  0.00    +0.000 HD
ATOM     10  H   UNL     1       2.955 -10.212   1.849  0.00  0.00    +0.000 HD
ENDBRANCH   1   7
BRANCH   1  11
ATOM     11  C   UNL     1       4.856 -12.303   1.721  0.00  0.00    +0.000 C 
ATOM     12  H   UNL     1       5.247 -13.025   2.449  0.00  0.00    +0.000 HD
ATOM     13  H   UNL     1       5.197 -11.322   2.076  0.00  0.00    +0.000 HD
BRANCH  11  14
ATOM     14  C   UNL     1       5.475 -12.577   0.356  0.00  0.00    +0.000 C 
ATOM     15  H   UNL     1       6.147 -13.439   0.369  0.00  0.00    +0.000 HD
ATOM     16  H   UNL     1       4.715 -12.737  -0.413  0.00  0.00    +0.000 HD
BRANCH  14  17
ATOM     17  O   UNL     1       6.232 -11.439  -0.038  0.00  0.00    +0.000 OA
ATOM     18  H   UNL     1       5.783 -10.651   0.312  0.00  0.00    +0.000 HD
ENDBRANCH  14  17
ENDBRANCH  11  14
ENDBRANCH   1  11
TORSDOF 5
ENDMDL
MODEL 7
REMARK VINA RESULT:    -2.948     33.896     34.760
REMARK INTER + INTRA:          -3.569
REMARK INTER:                  -3.500
REMARK INTRA:                  -0.069
REMARK UNBOUND:                -0.018
REMARK  Name = 31260
REMARK  5 active torsions:
REMARK  status: ('A' for Active; 'I' for Inactive)
REMARK    1  A    between atoms: O_1  and  C_6
REMARK    2  A    between atoms: C_2  and  C_3
REMARK    3  A    between atoms: C_2  and  C_4
REMARK    4  A    between atoms: C_2  and  C_5
REMARK    5  A    between atoms: C_3  and  C_6
REMARK                            x       y       z     vdW  Elec       q    Type
REMARK                         _______ _______ _______ _____ _____    ______ ____
ROOT
ATOM      1  C   UNL     1     -19.162  -1.365   7.107  0.00  0.00    +0.000 C 
ATOM      2  H   UNL     1     -19.888  -0.546   7.037  0.00  0.00    +0.000 HD
ENDROOT
BRANCH   1   3
ATOM      3  C   UNL     1     -19.106  -1.843   8.560  0.00  0.00    +0.000 C 
ATOM      4  H   UNL     1     -18.122  -2.274   8.776  0.00  0.00    +0.000 HD
ATOM      5  H   UNL     1     -19.849  -2.618   8.775  0.00  0.00    +0.000 HD
ATOM      6  H   UNL     1     -19.260  -1.012   9.256  0.00  0.00    +0.000 HD
ENDBRANCH   1   3
BRANCH   1   7
ATOM      7  C   UNL     1     -17.792  -0.830   6.687  0.00  0.00    +0.000 C 
ATOM      8  H   UNL     1     -17.132  -1.622   6.320  0.00  0.00    +0.000 HD
ATOM      9  H   UNL     1     -17.291  -0.355   7.538  0.00  0.00    +0.000 HD
ATOM     10  H   UNL     1     -17.895  -0.078   5.899  0.00  0.00    +0.000 HD
ENDBRANCH   1   7
BRANCH   1  11
ATOM     11  C   UNL     1     -19.648  -2.506   6.200  0.00  0.00    +0.000 C 
ATOM     12  H   UNL     1     -20.426  -2.130   5.523  0.00  0.00    +0.000 HD
ATOM     13  H   UNL     1     -20.141  -3.277   6.807  0.00  0.00    +0.000 HD
BRANCH  11  14
ATOM     14  C   UNL     1     -18.538  -3.156   5.383  0.00  0.00    +0.000 C 
ATOM     15  H   UNL     1     -18.880  -3.471   4.394  0.00  0.00    +0.000 HD
ATOM     16  H   UNL     1     -17.678  -2.494   5.262  0.00  0.00    +0.000 HD
BRANCH  14  17
ATOM     17  O   UNL     1     -18.080  -4.312   6.075  0.00  0.00    +0.000 OA
ATOM     18  H   UNL     1     -17.293  -4.641   5.608  0.00  0.00    +0.000 HD
ENDBRANCH  14  17
ENDBRANCH  11  14
ENDBRANCH   1  11
TORSDOF 5
ENDMDL
MODEL 8
REMARK VINA RESULT:    -2.947     13.895     15.001
REMARK INTER + INTRA:          -3.568
REMARK INTER:                  -3.511
REMARK INTRA:                  -0.057
REMARK UNBOUND:                -0.018
REMARK  Name = 31260
REMARK  5 active torsions:
REMARK  status: ('A' for Active; 'I' for Inactive)
REMARK    1  A    between atoms: O_1  and  C_6
REMARK    2  A    between atoms: C_2  and  C_3
REMARK    3  A    between atoms: C_2  and  C_4
REMARK    4  A    between atoms: C_2  and  C_5
REMARK    5  A    between atoms: C_3  and  C_6
REMARK                            x       y       z     vdW  Elec       q    Type
REMARK                         _______ _______ _______ _____ _____    ______ ____
ROOT
ATOM      1  C   UNL     1       8.607  12.398  -3.589  0.00  0.00    +0.000 C 
ATOM      2  H   UNL     1       7.909  11.841  -4.225  0.00  0.00    +0.000 HD
ENDROOT
BRANCH   1   3
ATOM      3  C   UNL     1       8.753  11.655  -2.259  0.00  0.00    +0.000 C 
ATOM      4  H   UNL     1       9.714  11.130  -2.225  0.00  0.00    +0.000 HD
ATOM      5  H   UNL     1       7.972  10.902  -2.112  0.00  0.00    +0.000 HD
ATOM      6  H   UNL     1       8.729  12.351  -1.413  0.00  0.00    +0.000 HD
ENDBRANCH   1   3
BRANCH   1   7
ATOM      7  C   UNL     1       8.026  13.791  -3.341  0.00  0.00    +0.000 C 
ATOM      8  H   UNL     1       7.833  14.331  -4.273  0.00  0.00    +0.000 HD
ATOM      9  H   UNL     1       8.724  14.394  -2.751  0.00  0.00    +0.000 HD
ATOM     10  H   UNL     1       7.087  13.725  -2.783  0.00  0.00    +0.000 HD
ENDBRANCH   1   7
BRANCH   1  11
ATOM     11  C   UNL     1       9.964  12.449  -4.310  0.00  0.00    +0.000 C 
ATOM     12  H   UNL     1      10.584  11.604  -3.985  0.00  0.00    +0.000 HD
ATOM     13  H   UNL     1      10.514  13.348  -4.000  0.00  0.00    +0.000 HD
BRANCH  11  14
ATOM     14  C   UNL     1       9.852  12.439  -5.829  0.00  0.00    +0.000 C 
ATOM     15  H   UNL     1       9.808  13.447  -6.250  0.00  0.00    +0.000 HD
ATOM     16  H   UNL     1      10.679  11.899  -6.297  0.00  0.00    +0.000 HD
BRANCH  14  17
ATOM     17  O   UNL     1       8.654  11.762  -6.194  0.00  0.00    +0.000 OA
ATOM     18  H   UNL     1       8.179  11.544  -5.374  0.00  0.00    +0.000 HD
ENDBRANCH  14  17
ENDBRANCH  11  14
ENDBRANCH   1  11
TORSDOF 5
ENDMDL
MODEL 9
REMARK VINA RESULT:    -2.931     13.899     14.747
REMARK INTER + INTRA:          -3.549
REMARK INTER:                  -3.531
REMARK INTRA:                  -0.018
REMARK UNBOUND:                -0.018
REMARK  Name = 31260
REMARK  5 active torsions:
REMARK  status: ('A' for Active; 'I' for Inactive)
REMARK    1  A    between atoms: O_1  and  C_6
REMARK    2  A    between atoms: C_2  and  C_3
REMARK    3  A    between atoms: C_2  and  C_4
REMARK    4  A    between atoms: C_2  and  C_5
REMARK    5  A    between atoms: C_3  and  C_6
REMARK                            x       y       z     vdW  Elec       q    Type
REMARK                         _______ _______ _______ _____ _____    ______ ____
ROOT
ATOM      1  C   UNL     1      12.841  -4.216 -15.405  0.00  0.00    +0.000 C 
ATOM      2  H   UNL     1      12.686  -3.736 -16.379  0.00  0.00    +0.000 HD
ENDROOT
BRANCH   1   3
ATOM      3  C   UNL     1      13.031  -5.718 -15.627  0.00  0.00    +0.000 C 
ATOM      4  H   UNL     1      14.011  -5.911 -16.078  0.00  0.00    +0.000 HD
ATOM      5  H   UNL     1      12.280  -6.139 -16.303  0.00  0.00    +0.000 HD
ATOM      6  H   UNL     1      12.991  -6.266 -14.680  0.00  0.00    +0.000 HD
ENDBRANCH   1   3
BRANCH   1   7
ATOM      7  C   UNL     1      11.599  -3.974 -14.546  0.00  0.00    +0.000 C 
ATOM      8  H   UNL     1      10.741  -4.563 -14.883  0.00  0.00    +0.000 HD
ATOM      9  H   UNL     1      11.309  -2.919 -14.586  0.00  0.00    +0.000 HD
ATOM     10  H   UNL     1      11.797  -4.226 -13.499  0.00  0.00    +0.000 HD
ENDBRANCH   1   7
BRANCH   1  11
ATOM     11  C   UNL     1      14.111  -3.616 -14.781  0.00  0.00    +0.000 C 
ATOM     12  H   UNL     1      14.810  -4.423 -14.525  0.00  0.00    +0.000 HD
ATOM     13  H   UNL     1      13.861  -3.136 -13.825  0.00  0.00    +0.000 HD
BRANCH  11  14
ATOM     14  C   UNL     1      14.814  -2.602 -15.674  0.00  0.00    +0.000 C 
ATOM     15  H   UNL     1      15.892  -2.776 -15.732  0.00  0.00    +0.000 HD
ATOM     16  H   UNL     1      14.406  -2.597 -16.688  0.00  0.00    +0.000 HD
BRANCH  14  17
ATOM     17  O   UNL     1      14.610  -1.301 -15.137  0.00  0.00    +0.000 OA
ATOM     18  H   UNL     1      15.437  -0.803 -15.250  0.00  0.00    +0.000 HD
ENDBRANCH  14  17
ENDBRANCH  11  14
ENDBRANCH   1  11
TORSDOF 5
ENDMDL
MODEL 10
REMARK VINA RESULT:    -2.871     34.373     34.963
REMARK INTER + INTRA:          -3.476
REMARK INTER:                  -3.462
REMARK INTRA:                  -0.014
REMARK UNBOUND:                -0.018
REMARK  Name = 31260
REMARK  5 active torsions:
REMARK  status: ('A' for Active; 'I' for Inactive)
REMARK    1  A    between atoms: O_1  and  C_6
REMARK    2  A    between atoms: C_2  and  C_3
REMARK    3  A    between atoms: C_2  and  C_4
REMARK    4  A    between atoms: C_2  and  C_5
REMARK    5  A    between atoms: C_3  and  C_6
REMARK                            x       y       z     vdW  Elec       q    Type
REMARK                         _______ _______ _______ _____ _____    ______ ____
ROOT
ATOM      1  C   UNL     1     -19.334  -2.120   6.151  0.00  0.00    +0.000 C 
ATOM      2  H   UNL     1     -19.736  -1.641   5.250  0.00  0.00    +0.000 HD
ENDROOT
BRANCH   1   3
ATOM      3  C   UNL     1     -18.570  -3.379   5.732  0.00  0.00    +0.000 C 
ATOM      4  H   UNL     1     -17.502  -3.256   5.940  0.00  0.00    +0.000 HD
ATOM      5  H   UNL     1     -18.666  -3.590   4.663  0.00  0.00    +0.000 HD
ATOM      6  H   UNL     1     -18.915  -4.255   6.292  0.00  0.00    +0.000 HD
ENDBRANCH   1   3
BRANCH   1   7
ATOM      7  C   UNL     1     -20.506  -2.505   7.056  0.00  0.00    +0.000 C 
ATOM      8  H   UNL     1     -21.067  -1.631   7.401  0.00  0.00    +0.000 HD
ATOM      9  H   UNL     1     -20.144  -3.034   7.943  0.00  0.00    +0.000 HD
ATOM     10  H   UNL     1     -21.199  -3.170   6.531  0.00  0.00    +0.000 HD
ENDBRANCH   1   7
BRANCH   1  11
ATOM     11  C   UNL     1     -18.375  -1.127   6.826  0.00  0.00    +0.000 C 
ATOM     12  H   UNL     1     -18.878  -0.160   6.953  0.00  0.00    +0.000 HD
ATOM     13  H   UNL     1     -17.524  -0.925   6.161  0.00  0.00    +0.000 HD
BRANCH  11  14
ATOM     14  C   UNL     1     -17.847  -1.603   8.173  0.00  0.00    +0.000 C 
ATOM     15  H   UNL     1     -18.574  -1.465   8.978  0.00  0.00    +0.000 HD
ATOM     16  H   UNL     1     -17.549  -2.654   8.148  0.00  0.00    +0.000 HD
BRANCH  14  17
ATOM     17  O   UNL     1     -16.686  -0.849   8.501  0.00  0.00    +0.000 OA
ATOM     18  H   UNL     1     -16.588  -0.153   7.828  0.00  0.00    +0.000 HD
ENDBRANCH  14  17
ENDBRANCH  11  14
ENDBRANCH   1  11
TORSDOF 5
ENDMDL
