MODEL 1
REMARK VINA RESULT:    -2.099      0.000      0.000
REMARK INTER + INTRA:          -2.160
REMARK INTER:                  -2.160
REMARK INTRA:                   0.000
REMARK UNBOUND:                 0.000
REMARK  Name = 177
REMARK  1 active torsions:
REMARK  status: ('A' for Active; 'I' for Inactive)
REMARK    1  A    between atoms: C_2  and  C_3
REMARK                            x       y       z     vdW  Elec       q    Type
REMARK                         _______ _______ _______ _____ _____    ______ ____
ROOT
ATOM      1  C   UNL     1      -0.655  -6.217  16.697  0.00  0.00    +0.000 C 
ATOM      2  H   UNL     1      -1.001  -6.931  15.947  0.00  0.00    +0.000 HD
ATOM      3  H   UNL     1      -0.158  -6.755  17.508  0.00  0.00    +0.000 HD
ATOM      4  H   UNL     1      -1.508  -5.663  17.097  0.00  0.00    +0.000 HD
ENDROOT
BRANCH   1   6
ATOM      5  O   UNL     1       0.464  -5.174  14.845  0.00  0.00    +0.000 OA
ATOM      6  C   UNL     1       0.298  -5.255  16.057  0.00  0.00    +0.000 C 
ATOM      7  H   UNL     1       0.858  -4.607  16.751  0.00  0.00    +0.000 HD
ENDBRANCH   1   6
TORSDOF 1
ENDMDL
MODEL 2
REMARK VINA RESULT:    -2.098     23.406     23.648
REMARK INTER + INTRA:          -2.159
REMARK INTER:                  -2.159
REMARK INTRA:                   0.000
REMARK UNBOUND:                 0.000
REMARK  Name = 177
REMARK  1 active torsions:
REMARK  status: ('A' for Active; 'I' for Inactive)
REMARK    1  A    between atoms: C_2  and  C_3
REMARK                            x       y       z     vdW  Elec       q    Type
REMARK                         _______ _______ _______ _____ _____    ______ ____
ROOT
ATOM      1  C   UNL     1       5.834  12.045   2.187  0.00  0.00    +0.000 C 
ATOM      2  H   UNL     1       5.089  12.826   2.358  0.00  0.00    +0.000 HD
ATOM      3  H   UNL     1       5.541  11.140   2.726  0.00  0.00    +0.000 HD
ATOM      4  H   UNL     1       6.809  12.383   2.547  0.00  0.00    +0.000 HD
ENDROOT
BRANCH   1   6
ATOM      5  O   UNL     1       4.988  11.927  -0.058  0.00  0.00    +0.000 OA
ATOM      6  C   UNL     1       5.923  11.764   0.719  0.00  0.00    +0.000 C 
ATOM      7  H   UNL     1       6.898  11.392   0.363  0.00  0.00    +0.000 HD
ENDBRANCH   1   6
TORSDOF 1
ENDMDL
MODEL 3
REMARK VINA RESULT:    -2.029      1.711      2.510
REMARK INTER + INTRA:          -2.089
REMARK INTER:                  -2.089
REMARK INTRA:                   0.000
REMARK UNBOUND:                 0.000
REMARK  Name = 177
REMARK  1 active torsions:
REMARK  status: ('A' for Active; 'I' for Inactive)
REMARK    1  A    between atoms: C_2  and  C_3
REMARK                            x       y       z     vdW  Elec       q    Type
REMARK                         _______ _______ _______ _____ _____    ______ ____
ROOT
ATOM      1  C   UNL     1       1.762  -3.177  15.165  0.00  0.00    +0.000 C 
ATOM      2  H   UNL     1       1.939  -2.555  16.045  0.00  0.00    +0.000 HD
ATOM      3  H   UNL     1       2.721  -3.456  14.720  0.00  0.00    +0.000 HD
ATOM      4  H   UNL     1       1.171  -2.621  14.434  0.00  0.00    +0.000 HD
ENDROOT
BRANCH   1   6
ATOM      5  O   UNL     1       0.487  -5.175  14.776  0.00  0.00    +0.000 OA
ATOM      6  C   UNL     1       1.008  -4.404  15.575  0.00  0.00    +0.000 C 
ATOM      7  H   UNL     1       0.944  -4.583  16.661  0.00  0.00    +0.000 HD
ENDBRANCH   1   6
TORSDOF 1
ENDMDL
MODEL 4
REMARK VINA RESULT:    -2.010     18.815     19.140
REMARK INTER + INTRA:          -2.069
REMARK INTER:                  -2.069
REMARK INTRA:                   0.000
REMARK UNBOUND:                 0.000
REMARK  Name = 177
REMARK  1 active torsions:
REMARK  status: ('A' for Active; 'I' for Inactive)
REMARK    1  A    between atoms: C_2  and  C_3
REMARK                            x       y       z     vdW  Elec       q    Type
REMARK                         _______ _______ _______ _____ _____    ______ ____
ROOT
ATOM      1  C   UNL     1      10.389  -8.551  -1.071  0.00  0.00    +0.000 C 
ATOM      2  H   UNL     1      10.403  -8.214  -2.110  0.00  0.00    +0.000 HD
ATOM      3  H   UNL     1      10.840  -7.784  -0.436  0.00  0.00    +0.000 HD
ATOM      4  H   UNL     1      10.955  -9.480  -0.978  0.00  0.00    +0.000 HD
ENDROOT
BRANCH   1   6
ATOM      5  O   UNL     1       8.649  -9.122   0.483  0.00  0.00    +0.000 OA
ATOM      6  C   UNL     1       8.972  -8.796  -0.654  0.00  0.00    +0.000 C 
ATOM      7  H   UNL     1       8.213  -8.665  -1.444  0.00  0.00    +0.000 HD
ENDBRANCH   1   6
TORSDOF 1
ENDMDL
MODEL 5
REMARK VINA RESULT:    -1.998      4.218      4.514
REMARK INTER + INTRA:          -2.057
REMARK INTER:                  -2.057
REMARK INTRA:                   0.000
REMARK UNBOUND:                 0.000
REMARK  Name = 177
REMARK  1 active torsions:
REMARK  status: ('A' for Active; 'I' for Inactive)
REMARK    1  A    between atoms: C_2  and  C_3
REMARK                            x       y       z     vdW  Elec       q    Type
REMARK                         _______ _______ _______ _____ _____    ______ ____
ROOT
ATOM      1  C   UNL     1       2.580  -3.177  15.832  0.00  0.00    +0.000 C 
ATOM      2  H   UNL     1       2.933  -2.601  16.690  0.00  0.00    +0.000 HD
ATOM      3  H   UNL     1       1.487  -3.200  15.835  0.00  0.00    +0.000 HD
ATOM      4  H   UNL     1       2.964  -4.199  15.891  0.00  0.00    +0.000 HD
ENDROOT
BRANCH   1   6
ATOM      5  O   UNL     1       4.242  -2.194  14.404  0.00  0.00    +0.000 OA
ATOM      6  C   UNL     1       3.077  -2.538  14.572  0.00  0.00    +0.000 C 
ATOM      7  H   UNL     1       2.322  -2.388  13.784  0.00  0.00    +0.000 HD
ENDBRANCH   1   6
TORSDOF 1
ENDMDL
MODEL 6
REMARK VINA RESULT:    -1.994     16.081     16.435
REMARK INTER + INTRA:          -2.052
REMARK INTER:                  -2.052
REMARK INTRA:                   0.000
REMARK UNBOUND:                 0.000
REMARK  Name = 177
REMARK  1 active torsions:
REMARK  status: ('A' for Active; 'I' for Inactive)
REMARK    1  A    between atoms: C_2  and  C_3
REMARK                            x       y       z     vdW  Elec       q    Type
REMARK                         _______ _______ _______ _____ _____    ______ ____
ROOT
ATOM      1  C   UNL     1       3.426  -2.699  -0.645  0.00  0.00    +0.000 C 
ATOM      2  H   UNL     1       2.502  -2.185  -0.371  0.00  0.00    +0.000 HD
ATOM      3  H   UNL     1       4.136  -1.975  -1.053  0.00  0.00    +0.000 HD
ATOM      4  H   UNL     1       3.213  -3.462  -1.397  0.00  0.00    +0.000 HD
ENDROOT
BRANCH   1   6
ATOM      5  O   UNL     1       4.688  -4.370   0.530  0.00  0.00    +0.000 OA
ATOM      6  C   UNL     1       4.001  -3.356   0.572  0.00  0.00    +0.000 C 
ATOM      7  H   UNL     1       3.768  -2.867   1.532  0.00  0.00    +0.000 HD
ENDBRANCH   1   6
TORSDOF 1
ENDMDL
MODEL 7
REMARK VINA RESULT:    -1.987     18.734     18.996
REMARK INTER + INTRA:          -2.045
REMARK INTER:                  -2.045
REMARK INTRA:                   0.000
REMARK UNBOUND:                 0.000
REMARK  Name = 177
REMARK  1 active torsions:
REMARK  status: ('A' for Active; 'I' for Inactive)
REMARK    1  A    between atoms: C_2  and  C_3
REMARK                            x       y       z     vdW  Elec       q    Type
REMARK                         _______ _______ _______ _____ _____    ______ ____
ROOT
ATOM      1  C   UNL     1       8.996 -10.965  -1.016  0.00  0.00    +0.000 C 
ATOM      2  H   UNL     1       9.193 -10.965  -2.090  0.00  0.00    +0.000 HD
ATOM      3  H   UNL     1       9.929 -11.148  -0.476  0.00  0.00    +0.000 HD
ATOM      4  H   UNL     1       8.276 -11.750  -0.774  0.00  0.00    +0.000 HD
ENDROOT
BRANCH   1   6
ATOM      5  O   UNL     1       8.658  -9.095   0.453  0.00  0.00    +0.000 OA
ATOM      6  C   UNL     1       8.426  -9.638  -0.622  0.00  0.00    +0.000 C 
ATOM      7  H   UNL     1       7.768  -9.161  -1.367  0.00  0.00    +0.000 HD
ENDBRANCH   1   6
TORSDOF 1
ENDMDL
MODEL 8
REMARK VINA RESULT:    -1.882     15.454     15.553
REMARK INTER + INTRA:          -1.937
REMARK INTER:                  -1.937
REMARK INTRA:                   0.000
REMARK UNBOUND:                 0.000
REMARK  Name = 177
REMARK  1 active torsions:
REMARK  status: ('A' for Active; 'I' for Inactive)
REMARK    1  A    between atoms: C_2  and  C_3
REMARK                            x       y       z     vdW  Elec       q    Type
REMARK                         _______ _______ _______ _____ _____    ______ ____
ROOT
ATOM      1  C   UNL     1       2.291 -12.459   2.731  0.00  0.00    +0.000 C 
ATOM      2  H   UNL     1       2.028 -11.931   3.650  0.00  0.00    +0.000 HD
ATOM      3  H   UNL     1       1.388 -12.886   2.287  0.00  0.00    +0.000 HD
ATOM      4  H   UNL     1       2.999 -13.261   2.957  0.00  0.00    +0.000 HD
ENDROOT
BRANCH   1   6
ATOM      5  O   UNL     1       2.329 -10.976   0.842  0.00  0.00    +0.000 OA
ATOM      6  C   UNL     1       2.928 -11.497   1.777  0.00  0.00    +0.000 C 
ATOM      7  H   UNL     1       3.992 -11.275   1.963  0.00  0.00    +0.000 HD
ENDBRANCH   1   6
TORSDOF 1
ENDMDL
MODEL 9
REMARK VINA RESULT:    -1.869     22.167     22.453
REMARK INTER + INTRA:          -1.924
REMARK INTER:                  -1.924
REMARK INTRA:                   0.000
REMARK UNBOUND:                 0.000
REMARK  Name = 177
REMARK  1 active torsions:
REMARK  status: ('A' for Active; 'I' for Inactive)
REMARK    1  A    between atoms: C_2  and  C_3
REMARK                            x       y       z     vdW  Elec       q    Type
REMARK                         _______ _______ _______ _____ _____    ______ ____
ROOT
ATOM      1  C   UNL     1      11.269  -9.265  -1.801  0.00  0.00    +0.000 C 
ATOM      2  H   UNL     1      11.808  -8.603  -1.120  0.00  0.00    +0.000 HD
ATOM      3  H   UNL     1      10.440  -8.717  -2.258  0.00  0.00    +0.000 HD
ATOM      4  H   UNL     1      10.877 -10.121  -1.247  0.00  0.00    +0.000 HD
ENDROOT
BRANCH   1   6
ATOM      5  O   UNL     1      13.428  -9.624  -2.791  0.00  0.00    +0.000 OA
ATOM      6  C   UNL     1      12.210  -9.753  -2.859  0.00  0.00    +0.000 C 
ATOM      7  H   UNL     1      11.739 -10.246  -3.725  0.00  0.00    +0.000 HD
ENDBRANCH   1   6
TORSDOF 1
ENDMDL
MODEL 10
REMARK VINA RESULT:    -1.772     18.476     18.682
REMARK INTER + INTRA:          -1.824
REMARK INTER:                  -1.824
REMARK INTRA:                   0.000
REMARK UNBOUND:                 0.000
REMARK  Name = 177
REMARK  1 active torsions:
REMARK  status: ('A' for Active; 'I' for Inactive)
REMARK    1  A    between atoms: C_2  and  C_3
REMARK                            x       y       z     vdW  Elec       q    Type
REMARK                         _______ _______ _______ _____ _____    ______ ____
ROOT
ATOM      1  C   UNL     1       3.735  -2.438  -1.319  0.00  0.00    +0.000 C 
ATOM      2  H   UNL     1       3.787  -2.107  -0.279  0.00  0.00    +0.000 HD
ATOM      3  H   UNL     1       3.449  -1.595  -1.954  0.00  0.00    +0.000 HD
ATOM      4  H   UNL     1       2.991  -3.233  -1.414  0.00  0.00    +0.000 HD
ENDROOT
BRANCH   1   6
ATOM      5  O   UNL     1       5.441  -3.030  -2.902  0.00  0.00    +0.000 OA
ATOM      6  C   UNL     1       5.073  -2.965  -1.734  0.00  0.00    +0.000 C 
ATOM      7  H   UNL     1       5.728  -3.303  -0.914  0.00  0.00    +0.000 HD
ENDBRANCH   1   6
TORSDOF 1
ENDMDL
