MODEL 1
REMARK VINA RESULT:    -5.657      0.000      0.000
REMARK INTER + INTRA:          -8.647
REMARK INTER:                  -7.855
REMARK INTRA:                  -0.792
REMARK UNBOUND:                -0.840
REMARK  Name = 5365976
REMARK  8 active torsions:
REMARK  status: ('A' for Active; 'I' for Inactive)
REMARK    1  A    between atoms: C_2  and  C_7
REMARK    2  A    between atoms: C_2  and  C_8
REMARK    3  A    between atoms: C_3  and  C_10
REMARK    4  A    between atoms: C_6  and  C_11
REMARK    5  A    between atoms: C_12  and  C_13
REMARK    6  A    between atoms: C_13  and  C_14
REMARK    7  A    between atoms: C_14  and  C_15
REMARK    8  A    between atoms: C_15  and  C_16
REMARK                            x       y       z     vdW  Elec       q    Type
REMARK                         _______ _______ _______ _____ _____    ______ ____
ROOT
ATOM      1  C   UNL     1       6.962 -13.380  -0.011  0.00  0.00    +0.000 C 
ATOM      2  C   UNL     1       6.233 -14.764   0.132  0.00  0.00    +0.000 C 
ATOM      3  C   UNL     1       7.574 -12.980   1.353  0.00  0.00    +0.000 C 
ATOM      4  C   UNL     1       8.533 -14.034   1.913  0.00  0.00    +0.000 C 
ATOM      5  C   UNL     1       7.093 -15.799   0.846  0.00  0.00    +0.000 C 
ATOM      6  C   UNL     1       8.117 -15.449   1.645  0.00  0.00    +0.000 C 
ATOM      7  H   UNL     1       6.065 -15.132  -0.890  0.00  0.00    +0.000 HD
ATOM      8  H   UNL     1       6.772 -12.811   2.082  0.00  0.00    +0.000 HD
ATOM      9  H   UNL     1       8.106 -12.023   1.269  0.00  0.00    +0.000 HD
ATOM     10  H   UNL     1       8.633 -13.884   2.994  0.00  0.00    +0.000 HD
ATOM     11  H   UNL     1       9.531 -13.885   1.484  0.00  0.00    +0.000 HD
ATOM     12  H   UNL     1       8.713 -16.221   2.125  0.00  0.00    +0.000 HD
ENDROOT
BRANCH   1  13
ATOM     13  C   UNL     1       8.075 -13.484  -1.084  0.00  0.00    +0.000 C 
ATOM     14  H   UNL     1       7.747 -13.041  -2.031  0.00  0.00    +0.000 HD
ATOM     15  H   UNL     1       8.998 -12.976  -0.788  0.00  0.00    +0.000 HD
ATOM     16  H   UNL     1       8.330 -14.531  -1.281  0.00  0.00    +0.000 HD
ENDBRANCH   1  13
BRANCH   1  17
ATOM     17  C   UNL     1       5.998 -12.267  -0.476  0.00  0.00    +0.000 C 
ATOM     18  H   UNL     1       6.435 -11.691  -1.301  0.00  0.00    +0.000 HD
ATOM     19  H   UNL     1       5.051 -12.688  -0.830  0.00  0.00    +0.000 HD
ATOM     20  H   UNL     1       5.776 -11.554   0.325  0.00  0.00    +0.000 HD
ENDBRANCH   1  17
BRANCH   2  21
ATOM     21  C   UNL     1       4.900 -14.660   0.827  0.00  0.00    +0.000 C 
ATOM     22  C   UNL     1       4.730 -14.899   2.132  0.00  0.00    +0.000 C 
ATOM     23  H   UNL     1       4.048 -14.368   0.215  0.00  0.00    +0.000 HD
ATOM     24  H   UNL     1       5.558 -15.189   2.770  0.00  0.00    +0.000 HD
BRANCH  22  26
ATOM     25  O   UNL     1       2.564 -15.694   2.716  0.00  0.00    +0.000 OA
ATOM     26  C   UNL     1       3.384 -14.780   2.763  0.00  0.00    +0.000 C 
BRANCH  26  27
ATOM     27  C   UNL     1       3.103 -13.457   3.457  0.00  0.00    +0.000 C 
ATOM     28  H   UNL     1       2.649 -13.675   4.431  0.00  0.00    +0.000 HD
ATOM     29  H   UNL     1       4.061 -12.950   3.624  0.00  0.00    +0.000 HD
BRANCH  27  30
ATOM     30  C   UNL     1       2.174 -12.558   2.641  0.00  0.00    +0.000 C 
ATOM     31  H   UNL     1       1.538 -11.971   3.316  0.00  0.00    +0.000 HD
ATOM     32  H   UNL     1       1.500 -13.176   2.035  0.00  0.00    +0.000 HD
BRANCH  30  33
ATOM     33  C   UNL     1       2.951 -11.660   1.724  0.00  0.00    +0.000 C 
ATOM     34  C   UNL     1       2.392 -10.881   0.790  0.00  0.00    +0.000 C 
ATOM     35  H   UNL     1       4.033 -11.660   1.823  0.00  0.00    +0.000 HD
ATOM     36  H   UNL     1       3.012 -10.260   0.153  0.00  0.00    +0.000 HD
ATOM     37  H   UNL     1       1.318 -10.849   0.645  0.00  0.00    +0.000 HD
ENDBRANCH  30  33
ENDBRANCH  27  30
ENDBRANCH  26  27
ENDBRANCH  22  26
ENDBRANCH   2  21
BRANCH   5  38
ATOM     38  C   UNL     1       6.752 -17.244   0.605  0.00  0.00    +0.000 C 
ATOM     39  H   UNL     1       5.727 -17.459   0.923  0.00  0.00    +0.000 HD
ATOM     40  H   UNL     1       7.416 -17.921   1.151  0.00  0.00    +0.000 HD
ATOM     41  H   UNL     1       6.842 -17.480  -0.460  0.00  0.00    +0.000 HD
ENDBRANCH   5  38
TORSDOF 8
ENDMDL
MODEL 2
REMARK VINA RESULT:    -5.325      1.791      4.247
REMARK INTER + INTRA:          -8.189
REMARK INTER:                  -7.208
REMARK INTRA:                  -0.981
REMARK UNBOUND:                -0.840
REMARK  Name = 5365976
REMARK  8 active torsions:
REMARK  status: ('A' for Active; 'I' for Inactive)
REMARK    1  A    between atoms: C_2  and  C_7
REMARK    2  A    between atoms: C_2  and  C_8
REMARK    3  A    between atoms: C_3  and  C_10
REMARK    4  A    between atoms: C_6  and  C_11
REMARK    5  A    between atoms: C_12  and  C_13
REMARK    6  A    between atoms: C_13  and  C_14
REMARK    7  A    between atoms: C_14  and  C_15
REMARK    8  A    between atoms: C_15  and  C_16
REMARK                            x       y       z     vdW  Elec       q    Type
REMARK                         _______ _______ _______ _____ _____    ______ ____
ROOT
ATOM      1  C   UNL     1       5.979 -12.941   0.677  0.00  0.00    +0.000 C 
ATOM      2  C   UNL     1       4.693 -12.531   1.480  0.00  0.00    +0.000 C 
ATOM      3  C   UNL     1       5.565 -13.465  -0.719  0.00  0.00    +0.000 C 
ATOM      4  C   UNL     1       4.734 -12.456  -1.517  0.00  0.00    +0.000 C 
ATOM      5  C   UNL     1       3.749 -11.664   0.657  0.00  0.00    +0.000 C 
ATOM      6  C   UNL     1       3.781 -11.650  -0.687  0.00  0.00    +0.000 C 
ATOM      7  H   UNL     1       5.039 -11.919   2.326  0.00  0.00    +0.000 HD
ATOM      8  H   UNL     1       4.985 -14.389  -0.609  0.00  0.00    +0.000 HD
ATOM      9  H   UNL     1       6.453 -13.739  -1.305  0.00  0.00    +0.000 HD
ATOM     10  H   UNL     1       4.176 -12.991  -2.294  0.00  0.00    +0.000 HD
ATOM     11  H   UNL     1       5.405 -11.762  -2.038  0.00  0.00    +0.000 HD
ATOM     12  H   UNL     1       3.098 -11.007  -1.235  0.00  0.00    +0.000 HD
ENDROOT
BRANCH   1  13
ATOM     13  C   UNL     1       6.916 -11.716   0.529  0.00  0.00    +0.000 C 
ATOM     14  H   UNL     1       7.878 -12.011   0.094  0.00  0.00    +0.000 HD
ATOM     15  H   UNL     1       6.495 -10.934  -0.109  0.00  0.00    +0.000 HD
ATOM     16  H   UNL     1       7.121 -11.262   1.505  0.00  0.00    +0.000 HD
ENDBRANCH   1  13
BRANCH   1  17
ATOM     17  C   UNL     1       6.789 -14.035   1.406  0.00  0.00    +0.000 C 
ATOM     18  H   UNL     1       6.678 -13.945   2.493  0.00  0.00    +0.000 HD
ATOM     19  H   UNL     1       6.448 -15.036   1.118  0.00  0.00    +0.000 HD
ATOM     20  H   UNL     1       7.861 -13.966   1.190  0.00  0.00    +0.000 HD
ENDBRANCH   1  17
BRANCH   2  21
ATOM     21  C   UNL     1       3.935 -13.714   2.026  0.00  0.00    +0.000 C 
ATOM     22  C   UNL     1       3.473 -13.777   3.280  0.00  0.00    +0.000 C 
ATOM     23  H   UNL     1       3.762 -14.544   1.343  0.00  0.00    +0.000 HD
ATOM     24  H   UNL     1       3.627 -12.966   3.984  0.00  0.00    +0.000 HD
BRANCH  22  26
ATOM     25  O   UNL     1       2.780 -15.339   4.935  0.00  0.00    +0.000 OA
ATOM     26  C   UNL     1       2.729 -14.976   3.762  0.00  0.00    +0.000 C 
BRANCH  26  27
ATOM     27  C   UNL     1       1.917 -15.707   2.707  0.00  0.00    +0.000 C 
ATOM     28  H   UNL     1       0.854 -15.527   2.912  0.00  0.00    +0.000 HD
ATOM     29  H   UNL     1       2.161 -15.277   1.728  0.00  0.00    +0.000 HD
BRANCH  27  30
ATOM     30  C   UNL     1       2.195 -17.210   2.698  0.00  0.00    +0.000 C 
ATOM     31  H   UNL     1       1.440 -17.724   2.089  0.00  0.00    +0.000 HD
ATOM     32  H   UNL     1       2.101 -17.610   3.714  0.00  0.00    +0.000 HD
BRANCH  30  33
ATOM     33  C   UNL     1       3.577 -17.506   2.195  0.00  0.00    +0.000 C 
ATOM     34  C   UNL     1       4.031 -17.136   0.992  0.00  0.00    +0.000 C 
ATOM     35  H   UNL     1       4.237 -18.069   2.849  0.00  0.00    +0.000 HD
ATOM     36  H   UNL     1       5.040 -17.389   0.686  0.00  0.00    +0.000 HD
ATOM     37  H   UNL     1       3.411 -16.579   0.298  0.00  0.00    +0.000 HD
ENDBRANCH  30  33
ENDBRANCH  27  30
ENDBRANCH  26  27
ENDBRANCH  22  26
ENDBRANCH   2  21
BRANCH   5  38
ATOM     38  C   UNL     1       2.779 -10.806   1.422  0.00  0.00    +0.000 C 
ATOM     39  H   UNL     1       1.947 -10.497   0.783  0.00  0.00    +0.000 HD
ATOM     40  H   UNL     1       3.252  -9.898   1.812  0.00  0.00    +0.000 HD
ATOM     41  H   UNL     1       2.375 -11.360   2.276  0.00  0.00    +0.000 HD
ENDBRANCH   5  38
TORSDOF 8
ENDMDL
MODEL 3
REMARK VINA RESULT:    -5.313      1.514      2.343
REMARK INTER + INTRA:          -8.172
REMARK INTER:                  -7.275
REMARK INTRA:                  -0.897
REMARK UNBOUND:                -0.840
REMARK  Name = 5365976
REMARK  8 active torsions:
REMARK  status: ('A' for Active; 'I' for Inactive)
REMARK    1  A    between atoms: C_2  and  C_7
REMARK    2  A    between atoms: C_2  and  C_8
REMARK    3  A    between atoms: C_3  and  C_10
REMARK    4  A    between atoms: C_6  and  C_11
REMARK    5  A    between atoms: C_12  and  C_13
REMARK    6  A    between atoms: C_13  and  C_14
REMARK    7  A    between atoms: C_14  and  C_15
REMARK    8  A    between atoms: C_15  and  C_16
REMARK                            x       y       z     vdW  Elec       q    Type
REMARK                         _______ _______ _______ _____ _____    ______ ____
ROOT
ATOM      1  C   UNL     1       7.061 -13.265  -0.182  0.00  0.00    +0.000 C 
ATOM      2  C   UNL     1       5.889 -14.277   0.077  0.00  0.00    +0.000 C 
ATOM      3  C   UNL     1       7.786 -12.968   1.153  0.00  0.00    +0.000 C 
ATOM      4  C   UNL     1       8.310 -14.229   1.846  0.00  0.00    +0.000 C 
ATOM      5  C   UNL     1       6.328 -15.469   0.918  0.00  0.00    +0.000 C 
ATOM      6  C   UNL     1       7.415 -15.424   1.708  0.00  0.00    +0.000 C 
ATOM      7  H   UNL     1       5.593 -14.666  -0.908  0.00  0.00    +0.000 HD
ATOM      8  H   UNL     1       7.102 -12.450   1.837  0.00  0.00    +0.000 HD
ATOM      9  H   UNL     1       8.623 -12.276   0.990  0.00  0.00    +0.000 HD
ATOM     10  H   UNL     1       8.465 -14.012   2.909  0.00  0.00    +0.000 HD
ATOM     11  H   UNL     1       9.293 -14.490   1.434  0.00  0.00    +0.000 HD
ATOM     12  H   UNL     1       7.700 -16.302   2.281  0.00  0.00    +0.000 HD
ENDROOT
BRANCH   1  13
ATOM     13  C   UNL     1       8.057 -13.869  -1.204  0.00  0.00    +0.000 C 
ATOM     14  H   UNL     1       8.150 -13.224  -2.086  0.00  0.00    +0.000 HD
ATOM     15  H   UNL     1       9.061 -14.004  -0.790  0.00  0.00    +0.000 HD
ATOM     16  H   UNL     1       7.714 -14.851  -1.549  0.00  0.00    +0.000 HD
ENDBRANCH   1  13
BRANCH   1  17
ATOM     17  C   UNL     1       6.554 -11.937  -0.786  0.00  0.00    +0.000 C 
ATOM     18  H   UNL     1       6.240 -11.244   0.003  0.00  0.00    +0.000 HD
ATOM     19  H   UNL     1       7.340 -11.444  -1.369  0.00  0.00    +0.000 HD
ATOM     20  H   UNL     1       5.689 -12.088  -1.440  0.00  0.00    +0.000 HD
ENDBRANCH   1  17
BRANCH   2  21
ATOM     21  C   UNL     1       4.685 -13.634   0.717  0.00  0.00    +0.000 C 
ATOM     22  C   UNL     1       4.619 -13.325   2.017  0.00  0.00    +0.000 C 
ATOM     23  H   UNL     1       3.840 -13.415   0.065  0.00  0.00    +0.000 HD
ATOM     24  H   UNL     1       5.443 -13.528   2.692  0.00  0.00    +0.000 HD
BRANCH  22  26
ATOM     25  O   UNL     1       3.192 -11.482   2.496  0.00  0.00    +0.000 OA
ATOM     26  C   UNL     1       3.399 -12.689   2.592  0.00  0.00    +0.000 C 
BRANCH  26  27
ATOM     27  C   UNL     1       2.443 -13.634   3.301  0.00  0.00    +0.000 C 
ATOM     28  H   UNL     1       1.966 -13.082   4.120  0.00  0.00    +0.000 HD
ATOM     29  H   UNL     1       1.667 -13.935   2.586  0.00  0.00    +0.000 HD
BRANCH  27  30
ATOM     30  C   UNL     1       3.151 -14.872   3.852  0.00  0.00    +0.000 C 
ATOM     31  H   UNL     1       3.193 -14.819   4.948  0.00  0.00    +0.000 HD
ATOM     32  H   UNL     1       4.189 -14.891   3.500  0.00  0.00    +0.000 HD
BRANCH  30  33
ATOM     33  C   UNL     1       2.472 -16.132   3.405  0.00  0.00    +0.000 C 
ATOM     34  C   UNL     1       1.607 -16.196   2.386  0.00  0.00    +0.000 C 
ATOM     35  H   UNL     1       2.692 -17.041   3.958  0.00  0.00    +0.000 HD
ATOM     36  H   UNL     1       1.144 -17.138   2.118  0.00  0.00    +0.000 HD
ATOM     37  H   UNL     1       1.346 -15.317   1.807  0.00  0.00    +0.000 HD
ENDBRANCH  30  33
ENDBRANCH  27  30
ENDBRANCH  26  27
ENDBRANCH  22  26
ENDBRANCH   2  21
BRANCH   5  38
ATOM     38  C   UNL     1       5.493 -16.715   0.812  0.00  0.00    +0.000 C 
ATOM     39  H   UNL     1       5.148 -17.036   1.800  0.00  0.00    +0.000 HD
ATOM     40  H   UNL     1       6.049 -17.548   0.369  0.00  0.00    +0.000 HD
ATOM     41  H   UNL     1       4.617 -16.531   0.181  0.00  0.00    +0.000 HD
ENDBRANCH   5  38
TORSDOF 8
ENDMDL
MODEL 4
REMARK VINA RESULT:    -5.163      1.925      4.020
REMARK INTER + INTRA:          -7.965
REMARK INTER:                  -6.870
REMARK INTRA:                  -1.094
REMARK UNBOUND:                -0.840
REMARK  Name = 5365976
REMARK  8 active torsions:
REMARK  status: ('A' for Active; 'I' for Inactive)
REMARK    1  A    between atoms: C_2  and  C_7
REMARK    2  A    between atoms: C_2  and  C_8
REMARK    3  A    between atoms: C_3  and  C_10
REMARK    4  A    between atoms: C_6  and  C_11
REMARK    5  A    between atoms: C_12  and  C_13
REMARK    6  A    between atoms: C_13  and  C_14
REMARK    7  A    between atoms: C_14  and  C_15
REMARK    8  A    between atoms: C_15  and  C_16
REMARK                            x       y       z     vdW  Elec       q    Type
REMARK                         _______ _______ _______ _____ _____    ______ ____
ROOT
ATOM      1  C   UNL     1       6.239 -12.886  -0.330  0.00  0.00    +0.000 C 
ATOM      2  C   UNL     1       5.532 -13.428   0.963  0.00  0.00    +0.000 C 
ATOM      3  C   UNL     1       5.171 -12.582  -1.408  0.00  0.00    +0.000 C 
ATOM      4  C   UNL     1       4.100 -11.597  -0.931  0.00  0.00    +0.000 C 
ATOM      5  C   UNL     1       4.343 -12.570   1.376  0.00  0.00    +0.000 C 
ATOM      6  C   UNL     1       3.713 -11.758   0.509  0.00  0.00    +0.000 C 
ATOM      7  H   UNL     1       6.274 -13.364   1.772  0.00  0.00    +0.000 HD
ATOM      8  H   UNL     1       4.680 -13.513  -1.715  0.00  0.00    +0.000 HD
ATOM      9  H   UNL     1       5.644 -12.182  -2.315  0.00  0.00    +0.000 HD
ATOM     10  H   UNL     1       3.210 -11.707  -1.560  0.00  0.00    +0.000 HD
ATOM     11  H   UNL     1       4.458 -10.570  -1.074  0.00  0.00    +0.000 HD
ATOM     12  H   UNL     1       2.876 -11.153   0.849  0.00  0.00    +0.000 HD
ENDROOT
BRANCH   1  13
ATOM     13  C   UNL     1       7.035 -11.601   0.009  0.00  0.00    +0.000 C 
ATOM     14  H   UNL     1       6.990 -11.386   1.083  0.00  0.00    +0.000 HD
ATOM     15  H   UNL     1       8.091 -11.671  -0.267  0.00  0.00    +0.000 HD
ATOM     16  H   UNL     1       6.619 -10.735  -0.518  0.00  0.00    +0.000 HD
ENDBRANCH   1  13
BRANCH   1  17
ATOM     17  C   UNL     1       7.254 -13.901  -0.900  0.00  0.00    +0.000 C 
ATOM     18  H   UNL     1       7.144 -14.878  -0.416  0.00  0.00    +0.000 HD
ATOM     19  H   UNL     1       7.107 -14.044  -1.976  0.00  0.00    +0.000 HD
ATOM     20  H   UNL     1       8.289 -13.582  -0.738  0.00  0.00    +0.000 HD
ENDBRANCH   1  17
BRANCH   2  21
ATOM     21  C   UNL     1       5.089 -14.863   0.837  0.00  0.00    +0.000 C 
ATOM     22  C   UNL     1       5.501 -15.836   1.658  0.00  0.00    +0.000 C 
ATOM     23  H   UNL     1       4.393 -15.094   0.033  0.00  0.00    +0.000 HD
ATOM     24  H   UNL     1       6.192 -15.639   2.471  0.00  0.00    +0.000 HD
BRANCH  22  26
ATOM     25  O   UNL     1       5.222 -17.862   0.442  0.00  0.00    +0.000 OA
ATOM     26  C   UNL     1       5.027 -17.239   1.483  0.00  0.00    +0.000 C 
BRANCH  26  27
ATOM     27  C   UNL     1       4.289 -17.832   2.671  0.00  0.00    +0.000 C 
ATOM     28  H   UNL     1       3.392 -18.338   2.294  0.00  0.00    +0.000 HD
ATOM     29  H   UNL     1       4.940 -18.580   3.139  0.00  0.00    +0.000 HD
BRANCH  27  30
ATOM     30  C   UNL     1       3.893 -16.771   3.698  0.00  0.00    +0.000 C 
ATOM     31  H   UNL     1       4.482 -15.859   3.536  0.00  0.00    +0.000 HD
ATOM     32  H   UNL     1       4.137 -17.125   4.707  0.00  0.00    +0.000 HD
BRANCH  30  33
ATOM     33  C   UNL     1       2.424 -16.475   3.639  0.00  0.00    +0.000 C 
ATOM     34  C   UNL     1       1.844 -15.757   2.671  0.00  0.00    +0.000 C 
ATOM     35  H   UNL     1       1.804 -16.859   4.444  0.00  0.00    +0.000 HD
ATOM     36  H   UNL     1       0.776 -15.571   2.691  0.00  0.00    +0.000 HD
ATOM     37  H   UNL     1       2.418 -15.344   1.849  0.00  0.00    +0.000 HD
ENDBRANCH  30  33
ENDBRANCH  27  30
ENDBRANCH  26  27
ENDBRANCH  22  26
ENDBRANCH   2  21
BRANCH   5  38
ATOM     38  C   UNL     1       3.912 -12.659   2.814  0.00  0.00    +0.000 C 
ATOM     39  H   UNL     1       4.267 -11.792   3.380  0.00  0.00    +0.000 HD
ATOM     40  H   UNL     1       4.301 -13.556   3.306  0.00  0.00    +0.000 HD
ATOM     41  H   UNL     1       2.820 -12.693   2.880  0.00  0.00    +0.000 HD
ENDBRANCH   5  38
TORSDOF 8
ENDMDL
MODEL 5
REMARK VINA RESULT:    -5.066      8.693     10.365
REMARK INTER + INTRA:          -7.831
REMARK INTER:                  -6.825
REMARK INTRA:                  -1.006
REMARK UNBOUND:                -0.840
REMARK  Name = 5365976
REMARK  8 active torsions:
REMARK  status: ('A' for Active; 'I' for Inactive)
REMARK    1  A    between atoms: C_2  and  C_7
REMARK    2  A    between atoms: C_2  and  C_8
REMARK    3  A    between atoms: C_3  and  C_10
REMARK    4  A    between atoms: C_6  and  C_11
REMARK    5  A    between atoms: C_12  and  C_13
REMARK    6  A    between atoms: C_13  and  C_14
REMARK    7  A    between atoms: C_14  and  C_15
REMARK    8  A    between atoms: C_15  and  C_16
REMARK                            x       y       z     vdW  Elec       q    Type
REMARK                         _______ _______ _______ _____ _____    ______ ____
ROOT
ATOM      1  C   UNL     1      16.179 -13.549  -4.151  0.00  0.00    +0.000 C 
ATOM      2  C   UNL     1      14.813 -14.276  -3.883  0.00  0.00    +0.000 C 
ATOM      3  C   UNL     1      16.732 -12.992  -2.818  0.00  0.00    +0.000 C 
ATOM      4  C   UNL     1      16.901 -14.067  -1.741  0.00  0.00    +0.000 C 
ATOM      5  C   UNL     1      14.889 -15.233  -2.701  0.00  0.00    +0.000 C 
ATOM      6  C   UNL     1      15.832 -15.118  -1.748  0.00  0.00    +0.000 C 
ATOM      7  H   UNL     1      14.605 -14.882  -4.777  0.00  0.00    +0.000 HD
ATOM      8  H   UNL     1      16.060 -12.214  -2.435  0.00  0.00    +0.000 HD
ATOM      9  H   UNL     1      17.698 -12.495  -2.981  0.00  0.00    +0.000 HD
ATOM     10  H   UNL     1      16.928 -13.584  -0.758  0.00  0.00    +0.000 HD
ATOM     11  H   UNL     1      17.869 -14.565  -1.871  0.00  0.00    +0.000 HD
ATOM     12  H   UNL     1      15.858 -15.831  -0.928  0.00  0.00    +0.000 HD
ENDROOT
BRANCH   1  13
ATOM     13  C   UNL     1      17.190 -14.546  -4.771  0.00  0.00    +0.000 C 
ATOM     14  H   UNL     1      18.171 -14.075  -4.905  0.00  0.00    +0.000 HD
ATOM     15  H   UNL     1      17.337 -15.439  -4.156  0.00  0.00    +0.000 HD
ATOM     16  H   UNL     1      16.849 -14.884  -5.756  0.00  0.00    +0.000 HD
ENDBRANCH   1  13
BRANCH   1  17
ATOM     17  C   UNL     1      16.026 -12.388  -5.157  0.00  0.00    +0.000 C 
ATOM     18  H   UNL     1      15.226 -11.705  -4.848  0.00  0.00    +0.000 HD
ATOM     19  H   UNL     1      16.951 -11.805  -5.231  0.00  0.00    +0.000 HD
ATOM     20  H   UNL     1      15.768 -12.744  -6.160  0.00  0.00    +0.000 HD
ENDBRANCH   1  17
BRANCH   2  21
ATOM     21  C   UNL     1      13.666 -13.321  -3.678  0.00  0.00    +0.000 C 
ATOM     22  C   UNL     1      12.538 -13.360  -4.397  0.00  0.00    +0.000 C 
ATOM     23  H   UNL     1      13.782 -12.575  -2.894  0.00  0.00    +0.000 HD
ATOM     24  H   UNL     1      12.391 -14.092  -5.184  0.00  0.00    +0.000 HD
BRANCH  22  26
ATOM     25  O   UNL     1      10.369 -12.734  -3.646  0.00  0.00    +0.000 OA
ATOM     26  C   UNL     1      11.436 -12.387  -4.146  0.00  0.00    +0.000 C 
BRANCH  26  27
ATOM     27  C   UNL     1      11.726 -10.953  -4.555  0.00  0.00    +0.000 C 
ATOM     28  H   UNL     1      12.606 -10.959  -5.211  0.00  0.00    +0.000 HD
ATOM     29  H   UNL     1      10.868 -10.581  -5.128  0.00  0.00    +0.000 HD
BRANCH  27  30
ATOM     30  C   UNL     1      11.982 -10.045  -3.353  0.00  0.00    +0.000 C 
ATOM     31  H   UNL     1      11.558 -10.499  -2.448  0.00  0.00    +0.000 HD
ATOM     32  H   UNL     1      11.462  -9.089  -3.494  0.00  0.00    +0.000 HD
BRANCH  30  33
ATOM     33  C   UNL     1      13.446  -9.770  -3.177  0.00  0.00    +0.000 C 
ATOM     34  C   UNL     1      14.277  -9.470  -4.182  0.00  0.00    +0.000 C 
ATOM     35  H   UNL     1      13.850  -9.837  -2.171  0.00  0.00    +0.000 HD
ATOM     36  H   UNL     1      15.328  -9.290  -3.989  0.00  0.00    +0.000 HD
ATOM     37  H   UNL     1      13.927  -9.398  -5.206  0.00  0.00    +0.000 HD
ENDBRANCH  30  33
ENDBRANCH  27  30
ENDBRANCH  26  27
ENDBRANCH  22  26
ENDBRANCH   2  21
BRANCH   5  38
ATOM     38  C   UNL     1      13.864 -16.332  -2.653  0.00  0.00    +0.000 C 
ATOM     39  H   UNL     1      13.071 -16.092  -1.939  0.00  0.00    +0.000 HD
ATOM     40  H   UNL     1      14.300 -17.290  -2.352  0.00  0.00    +0.000 HD
ATOM     41  H   UNL     1      13.412 -16.471  -3.641  0.00  0.00    +0.000 HD
ENDBRANCH   5  38
TORSDOF 8
ENDMDL
MODEL 6
REMARK VINA RESULT:    -5.065      1.538      2.927
REMARK INTER + INTRA:          -7.829
REMARK INTER:                  -7.115
REMARK INTRA:                  -0.714
REMARK UNBOUND:                -0.840
REMARK  Name = 5365976
REMARK  8 active torsions:
REMARK  status: ('A' for Active; 'I' for Inactive)
REMARK    1  A    between atoms: C_2  and  C_7
REMARK    2  A    between atoms: C_2  and  C_8
REMARK    3  A    between atoms: C_3  and  C_10
REMARK    4  A    between atoms: C_6  and  C_11
REMARK    5  A    between atoms: C_12  and  C_13
REMARK    6  A    between atoms: C_13  and  C_14
REMARK    7  A    between atoms: C_14  and  C_15
REMARK    8  A    between atoms: C_15  and  C_16
REMARK                            x       y       z     vdW  Elec       q    Type
REMARK                         _______ _______ _______ _____ _____    ______ ____
ROOT
ATOM      1  C   UNL     1       8.021 -13.390   0.613  0.00  0.00    +0.000 C 
ATOM      2  C   UNL     1       6.509 -13.018   0.811  0.00  0.00    +0.000 C 
ATOM      3  C   UNL     1       8.139 -14.502  -0.457  0.00  0.00    +0.000 C 
ATOM      4  C   UNL     1       7.503 -14.116  -1.796  0.00  0.00    +0.000 C 
ATOM      5  C   UNL     1       5.790 -12.795  -0.514  0.00  0.00    +0.000 C 
ATOM      6  C   UNL     1       6.251 -13.302  -1.671  0.00  0.00    +0.000 C 
ATOM      7  H   UNL     1       6.494 -12.060   1.352  0.00  0.00    +0.000 HD
ATOM      8  H   UNL     1       7.660 -15.419  -0.092  0.00  0.00    +0.000 HD
ATOM      9  H   UNL     1       9.192 -14.763  -0.625  0.00  0.00    +0.000 HD
ATOM     10  H   UNL     1       7.287 -15.029  -2.363  0.00  0.00    +0.000 HD
ATOM     11  H   UNL     1       8.225 -13.543  -2.392  0.00  0.00    +0.000 HD
ATOM     12  H   UNL     1       5.713 -13.108  -2.596  0.00  0.00    +0.000 HD
ENDROOT
BRANCH   1  13
ATOM     13  C   UNL     1       8.815 -12.137   0.167  0.00  0.00    +0.000 C 
ATOM     14  H   UNL     1       8.430 -11.747  -0.783  0.00  0.00    +0.000 HD
ATOM     15  H   UNL     1       8.768 -11.323   0.897  0.00  0.00    +0.000 HD
ATOM     16  H   UNL     1       9.874 -12.378   0.020  0.00  0.00    +0.000 HD
ENDBRANCH   1  13
BRANCH   1  17
ATOM     17  C   UNL     1       8.670 -13.884   1.925  0.00  0.00    +0.000 C 
ATOM     18  H   UNL     1       9.416 -13.167   2.285  0.00  0.00    +0.000 HD
ATOM     19  H   UNL     1       7.919 -14.008   2.713  0.00  0.00    +0.000 HD
ATOM     20  H   UNL     1       9.186 -14.841   1.793  0.00  0.00    +0.000 HD
ENDBRANCH   1  17
BRANCH   2  21
ATOM     21  C   UNL     1       5.751 -14.036   1.623  0.00  0.00    +0.000 C 
ATOM     22  C   UNL     1       4.911 -14.928   1.087  0.00  0.00    +0.000 C 
ATOM     23  H   UNL     1       5.917 -14.028   2.699  0.00  0.00    +0.000 HD
ATOM     24  H   UNL     1       4.726 -14.964   0.018  0.00  0.00    +0.000 HD
BRANCH  22  26
ATOM     25  O   UNL     1       4.669 -17.011   2.212  0.00  0.00    +0.000 OA
ATOM     26  C   UNL     1       4.189 -15.912   1.944  0.00  0.00    +0.000 C 
BRANCH  26  27
ATOM     27  C   UNL     1       2.830 -15.461   2.451  0.00  0.00    +0.000 C 
ATOM     28  H   UNL     1       2.355 -14.864   1.663  0.00  0.00    +0.000 HD
ATOM     29  H   UNL     1       2.218 -16.355   2.627  0.00  0.00    +0.000 HD
BRANCH  27  30
ATOM     30  C   UNL     1       2.931 -14.640   3.736  0.00  0.00    +0.000 C 
ATOM     31  H   UNL     1       3.862 -14.886   4.263  0.00  0.00    +0.000 HD
ATOM     32  H   UNL     1       2.110 -14.908   4.412  0.00  0.00    +0.000 HD
BRANCH  30  33
ATOM     33  C   UNL     1       2.853 -13.169   3.451  0.00  0.00    +0.000 C 
ATOM     34  C   UNL     1       1.996 -12.620   2.582  0.00  0.00    +0.000 C 
ATOM     35  H   UNL     1       3.548 -12.521   3.976  0.00  0.00    +0.000 HD
ATOM     36  H   UNL     1       1.996 -11.549   2.416  0.00  0.00    +0.000 HD
ATOM     37  H   UNL     1       1.286 -13.223   2.027  0.00  0.00    +0.000 HD
ENDBRANCH  30  33
ENDBRANCH  27  30
ENDBRANCH  26  27
ENDBRANCH  22  26
ENDBRANCH   2  21
BRANCH   5  38
ATOM     38  C   UNL     1       4.537 -11.964  -0.472  0.00  0.00    +0.000 C 
ATOM     39  H   UNL     1       4.568 -11.258   0.364  0.00  0.00    +0.000 HD
ATOM     40  H   UNL     1       3.639 -12.578  -0.352  0.00  0.00    +0.000 HD
ATOM     41  H   UNL     1       4.428 -11.397  -1.402  0.00  0.00    +0.000 HD
ENDBRANCH   5  38
TORSDOF 8
ENDMDL
MODEL 7
REMARK VINA RESULT:    -5.021      7.390     10.074
REMARK INTER + INTRA:          -7.769
REMARK INTER:                  -6.802
REMARK INTRA:                  -0.966
REMARK UNBOUND:                -0.840
REMARK  Name = 5365976
REMARK  8 active torsions:
REMARK  status: ('A' for Active; 'I' for Inactive)
REMARK    1  A    between atoms: C_2  and  C_7
REMARK    2  A    between atoms: C_2  and  C_8
REMARK    3  A    between atoms: C_3  and  C_10
REMARK    4  A    between atoms: C_6  and  C_11
REMARK    5  A    between atoms: C_12  and  C_13
REMARK    6  A    between atoms: C_13  and  C_14
REMARK    7  A    between atoms: C_14  and  C_15
REMARK    8  A    between atoms: C_15  and  C_16
REMARK                            x       y       z     vdW  Elec       q    Type
REMARK                         _______ _______ _______ _____ _____    ______ ____
ROOT
ATOM      1  C   UNL     1      12.872 -11.118  -4.785  0.00  0.00    +0.000 C 
ATOM      2  C   UNL     1      11.566 -11.987  -4.857  0.00  0.00    +0.000 C 
ATOM      3  C   UNL     1      12.523  -9.713  -4.238  0.00  0.00    +0.000 C 
ATOM      4  C   UNL     1      11.831  -9.755  -2.872  0.00  0.00    +0.000 C 
ATOM      5  C   UNL     1      10.753 -11.918  -3.571  0.00  0.00    +0.000 C 
ATOM      6  C   UNL     1      10.885 -10.904  -2.696  0.00  0.00    +0.000 C 
ATOM      7  H   UNL     1      11.895 -13.030  -4.976  0.00  0.00    +0.000 HD
ATOM      8  H   UNL     1      11.866  -9.193  -4.947  0.00  0.00    +0.000 HD
ATOM      9  H   UNL     1      13.427  -9.095  -4.161  0.00  0.00    +0.000 HD
ATOM     10  H   UNL     1      11.292  -8.814  -2.717  0.00  0.00    +0.000 HD
ATOM     11  H   UNL     1      12.589  -9.814  -2.081  0.00  0.00    +0.000 HD
ATOM     12  H   UNL     1      10.294 -10.901  -1.784  0.00  0.00    +0.000 HD
ENDROOT
BRANCH   1  13
ATOM     13  C   UNL     1      13.908 -11.806  -3.861  0.00  0.00    +0.000 C 
ATOM     14  H   UNL     1      13.411 -12.314  -3.027  0.00  0.00    +0.000 HD
ATOM     15  H   UNL     1      14.514 -12.551  -4.385  0.00  0.00    +0.000 HD
ATOM     16  H   UNL     1      14.599 -11.070  -3.434  0.00  0.00    +0.000 HD
ENDBRANCH   1  13
BRANCH   1  17
ATOM     17  C   UNL     1      13.541 -10.967  -6.168  0.00  0.00    +0.000 C 
ATOM     18  H   UNL     1      14.583 -11.305  -6.138  0.00  0.00    +0.000 HD
ATOM     19  H   UNL     1      13.020 -11.564  -6.926  0.00  0.00    +0.000 HD
ATOM     20  H   UNL     1      13.555  -9.926  -6.507  0.00  0.00    +0.000 HD
ENDBRANCH   1  17
BRANCH   2  21
ATOM     21  C   UNL     1      10.682 -11.630  -6.024  0.00  0.00    +0.000 C 
ATOM     22  C   UNL     1      10.310 -12.510  -6.961  0.00  0.00    +0.000 C 
ATOM     23  H   UNL     1      10.338 -10.599  -6.083  0.00  0.00    +0.000 HD
ATOM     24  H   UNL     1      10.634 -13.544  -6.930  0.00  0.00    +0.000 HD
BRANCH  22  26
ATOM     25  O   UNL     1       8.458 -12.763  -8.434  0.00  0.00    +0.000 OA
ATOM     26  C   UNL     1       9.432 -12.096  -8.094  0.00  0.00    +0.000 C 
BRANCH  26  27
ATOM     27  C   UNL     1       9.831 -10.806  -8.791  0.00  0.00    +0.000 C 
ATOM     28  H   UNL     1      10.850 -10.551  -8.474  0.00  0.00    +0.000 HD
ATOM     29  H   UNL     1       9.838 -10.991  -9.872  0.00  0.00    +0.000 HD
BRANCH  27  30
ATOM     30  C   UNL     1       8.882  -9.653  -8.467  0.00  0.00    +0.000 C 
ATOM     31  H   UNL     1       8.167  -9.965  -7.696  0.00  0.00    +0.000 HD
ATOM     32  H   UNL     1       8.292  -9.399  -9.356  0.00  0.00    +0.000 HD
BRANCH  30  33
ATOM     33  C   UNL     1       9.637  -8.431  -8.032  0.00  0.00    +0.000 C 
ATOM     34  C   UNL     1      10.781  -8.466  -7.339  0.00  0.00    +0.000 C 
ATOM     35  H   UNL     1       9.212  -7.465  -8.286  0.00  0.00    +0.000 HD
ATOM     36  H   UNL     1      11.273  -7.545  -7.047  0.00  0.00    +0.000 HD
ATOM     37  H   UNL     1      11.243  -9.404  -7.053  0.00  0.00    +0.000 HD
ENDBRANCH  30  33
ENDBRANCH  27  30
ENDBRANCH  26  27
ENDBRANCH  22  26
ENDBRANCH   2  21
BRANCH   5  38
ATOM     38  C   UNL     1       9.799 -13.051  -3.312  0.00  0.00    +0.000 C 
ATOM     39  H   UNL     1       9.113 -12.802  -2.497  0.00  0.00    +0.000 HD
ATOM     40  H   UNL     1      10.320 -13.973  -3.036  0.00  0.00    +0.000 HD
ATOM     41  H   UNL     1       9.209 -13.261  -4.211  0.00  0.00    +0.000 HD
ENDBRANCH   5  38
TORSDOF 8
ENDMDL
MODEL 8
REMARK VINA RESULT:    -4.981      9.273     12.393
REMARK INTER + INTRA:          -7.714
REMARK INTER:                  -6.753
REMARK INTRA:                  -0.960
REMARK UNBOUND:                -0.840
REMARK  Name = 5365976
REMARK  8 active torsions:
REMARK  status: ('A' for Active; 'I' for Inactive)
REMARK    1  A    between atoms: C_2  and  C_7
REMARK    2  A    between atoms: C_2  and  C_8
REMARK    3  A    between atoms: C_3  and  C_10
REMARK    4  A    between atoms: C_6  and  C_11
REMARK    5  A    between atoms: C_12  and  C_13
REMARK    6  A    between atoms: C_13  and  C_14
REMARK    7  A    between atoms: C_14  and  C_15
REMARK    8  A    between atoms: C_15  and  C_16
REMARK                            x       y       z     vdW  Elec       q    Type
REMARK                         _______ _______ _______ _____ _____    ______ ____
ROOT
ATOM      1  C   UNL     1       9.868 -10.364  -8.151  0.00  0.00    +0.000 C 
ATOM      2  C   UNL     1      11.253  -9.727  -8.526  0.00  0.00    +0.000 C 
ATOM      3  C   UNL     1       8.873  -9.242  -7.771  0.00  0.00    +0.000 C 
ATOM      4  C   UNL     1       8.699  -8.195  -8.875  0.00  0.00    +0.000 C 
ATOM      5  C   UNL     1      11.109  -8.560  -9.495  0.00  0.00    +0.000 C 
ATOM      6  C   UNL     1       9.955  -7.883  -9.632  0.00  0.00    +0.000 C 
ATOM      7  H   UNL     1      11.824 -10.511  -9.046  0.00  0.00    +0.000 HD
ATOM      8  H   UNL     1       9.217  -8.736  -6.860  0.00  0.00    +0.000 HD
ATOM      9  H   UNL     1       7.891  -9.666  -7.524  0.00  0.00    +0.000 HD
ATOM     10  H   UNL     1       8.305  -7.273  -8.432  0.00  0.00    +0.000 HD
ATOM     11  H   UNL     1       7.946  -8.543  -9.593  0.00  0.00    +0.000 HD
ATOM     12  H   UNL     1       9.893  -7.065 -10.344  0.00  0.00    +0.000 HD
ENDROOT
BRANCH   1  13
ATOM     13  C   UNL     1       9.322 -11.174  -9.353  0.00  0.00    +0.000 C 
ATOM     14  H   UNL     1       8.645 -11.967  -9.015  0.00  0.00    +0.000 HD
ATOM     15  H   UNL     1       8.770 -10.555 -10.067  0.00  0.00    +0.000 HD
ATOM     16  H   UNL     1      10.139 -11.653  -9.904  0.00  0.00    +0.000 HD
ENDBRANCH   1  13
BRANCH   1  17
ATOM     17  C   UNL     1       9.989 -11.351  -6.969  0.00  0.00    +0.000 C 
ATOM     18  H   UNL     1       9.007 -11.754  -6.694  0.00  0.00    +0.000 HD
ATOM     19  H   UNL     1      10.636 -12.197  -7.226  0.00  0.00    +0.000 HD
ATOM     20  H   UNL     1      10.397 -10.871  -6.073  0.00  0.00    +0.000 HD
ENDBRANCH   1  17
BRANCH   2  21
ATOM     21  C   UNL     1      12.043  -9.280  -7.323  0.00  0.00    +0.000 C 
ATOM     22  C   UNL     1      13.316  -9.633  -7.107  0.00  0.00    +0.000 C 
ATOM     23  H   UNL     1      11.533  -8.634  -6.612  0.00  0.00    +0.000 HD
ATOM     24  H   UNL     1      13.853 -10.274  -7.797  0.00  0.00    +0.000 HD
BRANCH  22  26
ATOM     25  O   UNL     1      14.455  -8.004  -5.799  0.00  0.00    +0.000 OA
ATOM     26  C   UNL     1      14.046  -9.159  -5.896  0.00  0.00    +0.000 C 
BRANCH  26  27
ATOM     27  C   UNL     1      14.250 -10.199  -4.808  0.00  0.00    +0.000 C 
ATOM     28  H   UNL     1      13.773 -11.131  -5.136  0.00  0.00    +0.000 HD
ATOM     29  H   UNL     1      15.327 -10.377  -4.702  0.00  0.00    +0.000 HD
BRANCH  27  30
ATOM     30  C   UNL     1      13.663  -9.760  -3.467  0.00  0.00    +0.000 C 
ATOM     31  H   UNL     1      14.010  -8.748  -3.222  0.00  0.00    +0.000 HD
ATOM     32  H   UNL     1      14.031 -10.417  -2.669  0.00  0.00    +0.000 HD
BRANCH  30  33
ATOM     33  C   UNL     1      12.164  -9.821  -3.481  0.00  0.00    +0.000 C 
ATOM     34  C   UNL     1      11.462 -10.959  -3.528  0.00  0.00    +0.000 C 
ATOM     35  H   UNL     1      11.626  -8.877  -3.467  0.00  0.00    +0.000 HD
ATOM     36  H   UNL     1      10.378 -10.933  -3.544  0.00  0.00    +0.000 HD
ATOM     37  H   UNL     1      11.950 -11.927  -3.551  0.00  0.00    +0.000 HD
ENDBRANCH  30  33
ENDBRANCH  27  30
ENDBRANCH  26  27
ENDBRANCH  22  26
ENDBRANCH   2  21
BRANCH   5  38
ATOM     38  C   UNL     1      12.322  -8.205 -10.310  0.00  0.00    +0.000 C 
ATOM     39  H   UNL     1      12.922  -7.444  -9.801  0.00  0.00    +0.000 HD
ATOM     40  H   UNL     1      12.055  -7.809 -11.295  0.00  0.00    +0.000 HD
ATOM     41  H   UNL     1      12.945  -9.091 -10.467  0.00  0.00    +0.000 HD
ENDBRANCH   5  38
TORSDOF 8
ENDMDL
MODEL 9
REMARK VINA RESULT:    -4.915     14.199     15.844
REMARK INTER + INTRA:          -7.622
REMARK INTER:                  -6.782
REMARK INTRA:                  -0.840
REMARK UNBOUND:                -0.840
REMARK  Name = 5365976
REMARK  8 active torsions:
REMARK  status: ('A' for Active; 'I' for Inactive)
REMARK    1  A    between atoms: C_2  and  C_7
REMARK    2  A    between atoms: C_2  and  C_8
REMARK    3  A    between atoms: C_3  and  C_10
REMARK    4  A    between atoms: C_6  and  C_11
REMARK    5  A    between atoms: C_12  and  C_13
REMARK    6  A    between atoms: C_13  and  C_14
REMARK    7  A    between atoms: C_14  and  C_15
REMARK    8  A    between atoms: C_15  and  C_16
REMARK                            x       y       z     vdW  Elec       q    Type
REMARK                         _______ _______ _______ _____ _____    ______ ____
ROOT
ATOM      1  C   UNL     1      -5.769  -7.086  -9.988  0.00  0.00    +0.000 C 
ATOM      2  C   UNL     1      -5.606  -8.639  -9.818  0.00  0.00    +0.000 C 
ATOM      3  C   UNL     1      -4.618  -6.366  -9.246  0.00  0.00    +0.000 C 
ATOM      4  C   UNL     1      -3.230  -6.813  -9.714  0.00  0.00    +0.000 C 
ATOM      5  C   UNL     1      -4.185  -9.106 -10.107  0.00  0.00    +0.000 C 
ATOM      6  C   UNL     1      -3.133  -8.271 -10.049  0.00  0.00    +0.000 C 
ATOM      7  H   UNL     1      -6.259  -9.103 -10.572  0.00  0.00    +0.000 HD
ATOM      8  H   UNL     1      -4.701  -6.551  -8.168  0.00  0.00    +0.000 HD
ATOM      9  H   UNL     1      -4.703  -5.279  -9.369  0.00  0.00    +0.000 HD
ATOM     10  H   UNL     1      -2.497  -6.570  -8.936  0.00  0.00    +0.000 HD
ATOM     11  H   UNL     1      -2.942  -6.238 -10.603  0.00  0.00    +0.000 HD
ATOM     12  H   UNL     1      -2.137  -8.643 -10.276  0.00  0.00    +0.000 HD
ENDROOT
BRANCH   1  13
ATOM     13  C   UNL     1      -5.744  -6.719 -11.492  0.00  0.00    +0.000 C 
ATOM     14  H   UNL     1      -4.742  -6.400 -11.801  0.00  0.00    +0.000 HD
ATOM     15  H   UNL     1      -6.034  -7.554 -12.138  0.00  0.00    +0.000 HD
ATOM     16  H   UNL     1      -6.433  -5.893 -11.704  0.00  0.00    +0.000 HD
ENDBRANCH   1  13
BRANCH   1  17
ATOM     17  C   UNL     1      -7.119  -6.585  -9.430  0.00  0.00    +0.000 C 
ATOM     18  H   UNL     1      -7.511  -5.760 -10.037  0.00  0.00    +0.000 HD
ATOM     19  H   UNL     1      -7.868  -7.384  -9.432  0.00  0.00    +0.000 HD
ATOM     20  H   UNL     1      -7.026  -6.208  -8.406  0.00  0.00    +0.000 HD
ENDBRANCH   1  17
BRANCH   2  21
ATOM     21  C   UNL     1      -6.025  -9.132  -8.457  0.00  0.00    +0.000 C 
ATOM     22  C   UNL     1      -5.167  -9.327  -7.449  0.00  0.00    +0.000 C 
ATOM     23  H   UNL     1      -7.086  -9.327  -8.310  0.00  0.00    +0.000 HD
ATOM     24  H   UNL     1      -4.104  -9.141  -7.563  0.00  0.00    +0.000 HD
BRANCH  22  26
ATOM     25  O   UNL     1      -5.489 -10.985  -5.772  0.00  0.00    +0.000 OA
ATOM     26  C   UNL     1      -5.642  -9.817  -6.123  0.00  0.00    +0.000 C 
BRANCH  26  27
ATOM     27  C   UNL     1      -6.326  -8.778  -5.251  0.00  0.00    +0.000 C 
ATOM     28  H   UNL     1      -5.657  -8.545  -4.413  0.00  0.00    +0.000 HD
ATOM     29  H   UNL     1      -6.466  -7.869  -5.848  0.00  0.00    +0.000 HD
BRANCH  27  30
ATOM     30  C   UNL     1      -7.674  -9.262  -4.718  0.00  0.00    +0.000 C 
ATOM     31  H   UNL     1      -8.084  -8.524  -4.017  0.00  0.00    +0.000 HD
ATOM     32  H   UNL     1      -7.536 -10.189  -4.149  0.00  0.00    +0.000 HD
BRANCH  30  33
ATOM     33  C   UNL     1      -8.639  -9.528  -5.835  0.00  0.00    +0.000 C 
ATOM     34  C   UNL     1      -9.174  -8.574  -6.605  0.00  0.00    +0.000 C 
ATOM     35  H   UNL     1      -8.926 -10.561  -6.012  0.00  0.00    +0.000 HD
ATOM     36  H   UNL     1      -9.873  -8.832  -7.393  0.00  0.00    +0.000 HD
ATOM     37  H   UNL     1      -8.927  -7.527  -6.466  0.00  0.00    +0.000 HD
ENDBRANCH  30  33
ENDBRANCH  27  30
ENDBRANCH  26  27
ENDBRANCH  22  26
ENDBRANCH   2  21
BRANCH   5  38
ATOM     38  C   UNL     1      -4.011 -10.554 -10.477  0.00  0.00    +0.000 C 
ATOM     39  H   UNL     1      -2.951 -10.801 -10.589  0.00  0.00    +0.000 HD
ATOM     40  H   UNL     1      -4.509 -10.800 -11.420  0.00  0.00    +0.000 HD
ATOM     41  H   UNL     1      -4.438 -11.196  -9.700  0.00  0.00    +0.000 HD
ENDBRANCH   5  38
TORSDOF 8
ENDMDL
MODEL 10
REMARK VINA RESULT:    -4.887     12.982     15.346
REMARK INTER + INTRA:          -7.583
REMARK INTER:                  -6.668
REMARK INTRA:                  -0.915
REMARK UNBOUND:                -0.840
REMARK  Name = 5365976
REMARK  8 active torsions:
REMARK  status: ('A' for Active; 'I' for Inactive)
REMARK    1  A    between atoms: C_2  and  C_7
REMARK    2  A    between atoms: C_2  and  C_8
REMARK    3  A    between atoms: C_3  and  C_10
REMARK    4  A    between atoms: C_6  and  C_11
REMARK    5  A    between atoms: C_12  and  C_13
REMARK    6  A    between atoms: C_13  and  C_14
REMARK    7  A    between atoms: C_14  and  C_15
REMARK    8  A    between atoms: C_15  and  C_16
REMARK                            x       y       z     vdW  Elec       q    Type
REMARK                         _______ _______ _______ _____ _____    ______ ____
ROOT
ATOM      1  C   UNL     1      -5.510  -6.986  -9.470  0.00  0.00    +0.000 C 
ATOM      2  C   UNL     1      -5.412  -8.522  -9.155  0.00  0.00    +0.000 C 
ATOM      3  C   UNL     1      -4.129  -6.327  -9.241  0.00  0.00    +0.000 C 
ATOM      4  C   UNL     1      -3.012  -6.972 -10.065  0.00  0.00    +0.000 C 
ATOM      5  C   UNL     1      -4.205  -9.172  -9.819  0.00  0.00    +0.000 C 
ATOM      6  C   UNL     1      -3.137  -8.458 -10.216  0.00  0.00    +0.000 C 
ATOM      7  H   UNL     1      -6.310  -8.985  -9.590  0.00  0.00    +0.000 HD
ATOM      8  H   UNL     1      -3.862  -6.389  -8.178  0.00  0.00    +0.000 HD
ATOM      9  H   UNL     1      -4.172  -5.255  -9.474  0.00  0.00    +0.000 HD
ATOM     10  H   UNL     1      -2.047  -6.734  -9.604  0.00  0.00    +0.000 HD
ATOM     11  H   UNL     1      -2.996  -6.528 -11.068  0.00  0.00    +0.000 HD
ATOM     12  H   UNL     1      -2.302  -8.961 -10.698  0.00  0.00    +0.000 HD
ENDROOT
BRANCH   1  13
ATOM     13  C   UNL     1      -5.961  -6.781 -10.937  0.00  0.00    +0.000 C 
ATOM     14  H   UNL     1      -6.178  -7.742 -11.418  0.00  0.00    +0.000 HD
ATOM     15  H   UNL     1      -6.859  -6.162 -11.023  0.00  0.00    +0.000 HD
ATOM     16  H   UNL     1      -5.174  -6.291 -11.522  0.00  0.00    +0.000 HD
ENDBRANCH   1  13
BRANCH   1  17
ATOM     17  C   UNL     1      -6.558  -6.282  -8.580  0.00  0.00    +0.000 C 
ATOM     18  H   UNL     1      -7.441  -5.999  -9.166  0.00  0.00    +0.000 HD
ATOM     19  H   UNL     1      -6.894  -6.939  -7.770  0.00  0.00    +0.000 HD
ATOM     20  H   UNL     1      -6.166  -5.363  -8.132  0.00  0.00    +0.000 HD
ENDBRANCH   1  17
BRANCH   2  21
ATOM     21  C   UNL     1      -5.389  -8.822  -7.678  0.00  0.00    +0.000 C 
ATOM     22  C   UNL     1      -6.291  -9.603  -7.072  0.00  0.00    +0.000 C 
ATOM     23  H   UNL     1      -4.584  -8.374  -7.098  0.00  0.00    +0.000 HD
ATOM     24  H   UNL     1      -7.103 -10.065  -7.622  0.00  0.00    +0.000 HD
BRANCH  22  26
ATOM     25  O   UNL     1      -6.080  -8.951  -4.793  0.00  0.00    +0.000 OA
ATOM     26  C   UNL     1      -6.216  -9.863  -5.606  0.00  0.00    +0.000 C 
BRANCH  26  27
ATOM     27  C   UNL     1      -6.314 -11.323  -5.196  0.00  0.00    +0.000 C 
ATOM     28  H   UNL     1      -5.606 -11.493  -4.376  0.00  0.00    +0.000 HD
ATOM     29  H   UNL     1      -7.330 -11.506  -4.824  0.00  0.00    +0.000 HD
BRANCH  27  30
ATOM     30  C   UNL     1      -6.006 -12.273  -6.353  0.00  0.00    +0.000 C 
ATOM     31  H   UNL     1      -6.197 -11.770  -7.309  0.00  0.00    +0.000 HD
ATOM     32  H   UNL     1      -6.683 -13.135  -6.313  0.00  0.00    +0.000 HD
BRANCH  30  33
ATOM     33  C   UNL     1      -4.593 -12.773  -6.287  0.00  0.00    +0.000 C 
ATOM     34  C   UNL     1      -3.901 -13.202  -7.348  0.00  0.00    +0.000 C 
ATOM     35  H   UNL     1      -4.117 -12.800  -5.310  0.00  0.00    +0.000 HD
ATOM     36  H   UNL     1      -2.884 -13.559  -7.232  0.00  0.00    +0.000 HD
ATOM     37  H   UNL     1      -4.331 -13.204  -8.344  0.00  0.00    +0.000 HD
ENDBRANCH  30  33
ENDBRANCH  27  30
ENDBRANCH  26  27
ENDBRANCH  22  26
ENDBRANCH   2  21
BRANCH   5  38
ATOM     38  C   UNL     1      -4.269 -10.660 -10.028  0.00  0.00    +0.000 C 
ATOM     39  H   UNL     1      -5.193 -10.941 -10.542  0.00  0.00    +0.000 HD
ATOM     40  H   UNL     1      -4.237 -11.211  -9.082  0.00  0.00    +0.000 HD
ATOM     41  H   UNL     1      -3.419 -10.994 -10.633  0.00  0.00    +0.000 HD
ENDBRANCH   5  38
TORSDOF 8
ENDMDL
