MODEL 1
REMARK VINA RESULT:    -4.838      0.000      0.000
REMARK INTER + INTRA:          -5.734
REMARK INTER:                  -5.643
REMARK INTRA:                  -0.091
REMARK UNBOUND:                -0.189
REMARK  Name = 261491
REMARK  4 active torsions:
REMARK  status: ('A' for Active; 'I' for Inactive)
REMARK    1  A    between atoms: C_2  and  C_7
REMARK    2  A    between atoms: C_5  and  C_9
REMARK    3  A    between atoms: C_7  and  C_10
REMARK    4  A    between atoms: C_7  and  C_11
REMARK                            x       y       z     vdW  Elec       q    Type
REMARK                         _______ _______ _______ _____ _____    ______ ____
ROOT
ATOM      1  O   UNL     1       7.122 -15.121   0.016  0.00  0.00    +0.000 OA
ATOM      2  C   UNL     1       4.659 -12.561   0.332  0.00  0.00    +0.000 C 
ATOM      3  C   UNL     1       5.744 -11.850  -0.416  0.00  0.00    +0.000 C 
ATOM      4  C   UNL     1       4.415 -12.101  -1.080  0.00  0.00    +0.000 C 
ATOM      5  C   UNL     1       6.906 -12.784  -0.643  0.00  0.00    +0.000 C 
ATOM      6  C   UNL     1       5.077 -13.971   0.622  0.00  0.00    +0.000 C 
ATOM      7  C   UNL     1       6.456 -14.094  -0.002  0.00  0.00    +0.000 C 
ATOM      8  H   UNL     1       6.007 -10.829  -0.181  0.00  0.00    +0.000 HD
ATOM      9  H   UNL     1       4.361 -12.846  -1.865  0.00  0.00    +0.000 HD
ATOM     10  H   UNL     1       3.772 -11.245  -1.250  0.00  0.00    +0.000 HD
ATOM     11  H   UNL     1       7.054 -12.946  -1.716  0.00  0.00    +0.000 HD
ATOM     12  H   UNL     1       4.400 -14.683   0.142  0.00  0.00    +0.000 HD
ATOM     13  H   UNL     1       5.166 -14.205   1.685  0.00  0.00    +0.000 HD
ENDROOT
BRANCH   5  14
ATOM     14  C   UNL     1       8.182 -12.286   0.015  0.00  0.00    +0.000 C 
ATOM     15  H   UNL     1       8.097 -12.295   1.108  0.00  0.00    +0.000 HD
ATOM     16  H   UNL     1       9.034 -12.919  -0.256  0.00  0.00    +0.000 HD
ATOM     17  H   UNL     1       8.405 -11.260  -0.294  0.00  0.00    +0.000 HD
ENDBRANCH   5  14
BRANCH   2  18
ATOM     18  C   UNL     1       3.947 -11.842   1.422  0.00  0.00    +0.000 C 
ATOM     19  H   UNL     1       4.608 -11.082   1.861  0.00  0.00    +0.000 HD
BRANCH  18  20
ATOM     20  C   UNL     1       2.705 -11.112   0.894  0.00  0.00    +0.000 C 
ATOM     21  H   UNL     1       2.933 -10.498   0.017  0.00  0.00    +0.000 HD
ATOM     22  H   UNL     1       1.928 -11.829   0.608  0.00  0.00    +0.000 HD
ATOM     23  H   UNL     1       2.288 -10.452   1.663  0.00  0.00    +0.000 HD
ENDBRANCH  18  20
BRANCH  18  24
ATOM     24  C   UNL     1       3.546 -12.795   2.556  0.00  0.00    +0.000 C 
ATOM     25  H   UNL     1       2.733 -12.402   3.172  0.00  0.00    +0.000 HD
ATOM     26  H   UNL     1       4.401 -12.969   3.221  0.00  0.00    +0.000 HD
ATOM     27  H   UNL     1       3.231 -13.767   2.163  0.00  0.00    +0.000 HD
ENDBRANCH  18  24
ENDBRANCH   2  18
TORSDOF 4
ENDMDL
MODEL 2
REMARK VINA RESULT:    -4.621     15.755     17.208
REMARK INTER + INTRA:          -5.486
REMARK INTER:                  -5.286
REMARK INTRA:                  -0.200
REMARK UNBOUND:                -0.189
REMARK  Name = 261491
REMARK  4 active torsions:
REMARK  status: ('A' for Active; 'I' for Inactive)
REMARK    1  A    between atoms: C_2  and  C_7
REMARK    2  A    between atoms: C_5  and  C_9
REMARK    3  A    between atoms: C_7  and  C_10
REMARK    4  A    between atoms: C_7  and  C_11
REMARK                            x       y       z     vdW  Elec       q    Type
REMARK                         _______ _______ _______ _____ _____    ______ ____
ROOT
ATOM      1  O   UNL     1       4.589  -6.655  14.440  0.00  0.00    +0.000 OA
ATOM      2  C   UNL     1       1.180  -6.098  15.327  0.00  0.00    +0.000 C 
ATOM      3  C   UNL     1       1.897  -5.230  16.313  0.00  0.00    +0.000 C 
ATOM      4  C   UNL     1       1.016  -4.604  15.264  0.00  0.00    +0.000 C 
ATOM      5  C   UNL     1       3.387  -5.338  16.103  0.00  0.00    +0.000 C 
ATOM      6  C   UNL     1       2.171  -6.803  14.450  0.00  0.00    +0.000 C 
ATOM      7  C   UNL     1       3.522  -6.308  14.932  0.00  0.00    +0.000 C 
ATOM      8  H   UNL     1       1.576  -5.173  17.343  0.00  0.00    +0.000 HD
ATOM      9  H   UNL     1       1.485  -4.065  14.449  0.00  0.00    +0.000 HD
ATOM     10  H   UNL     1       0.083  -4.162  15.593  0.00  0.00    +0.000 HD
ATOM     11  H   UNL     1       3.796  -4.366  15.809  0.00  0.00    +0.000 HD
ATOM     12  H   UNL     1       2.035  -6.517  13.404  0.00  0.00    +0.000 HD
ATOM     13  H   UNL     1       2.158  -7.891  14.540  0.00  0.00    +0.000 HD
ENDROOT
BRANCH   5  14
ATOM     14  C   UNL     1       4.102  -5.886  17.327  0.00  0.00    +0.000 C 
ATOM     15  H   UNL     1       4.067  -5.176  18.161  0.00  0.00    +0.000 HD
ATOM     16  H   UNL     1       3.637  -6.818  17.665  0.00  0.00    +0.000 HD
ATOM     17  H   UNL     1       5.154  -6.089  17.105  0.00  0.00    +0.000 HD
ENDBRANCH   5  14
BRANCH   2  18
ATOM     18  C   UNL     1       0.013  -6.898  15.788  0.00  0.00    +0.000 C 
ATOM     19  H   UNL     1      -0.562  -7.251  14.921  0.00  0.00    +0.000 HD
BRANCH  18  20
ATOM     20  C   UNL     1       0.459  -8.139  16.572  0.00  0.00    +0.000 C 
ATOM     21  H   UNL     1       1.384  -7.961  17.129  0.00  0.00    +0.000 HD
ATOM     22  H   UNL     1      -0.312  -8.440  17.290  0.00  0.00    +0.000 HD
ATOM     23  H   UNL     1       0.636  -8.982  15.895  0.00  0.00    +0.000 HD
ENDBRANCH  18  20
BRANCH  18  24
ATOM     24  C   UNL     1      -0.940  -6.056  16.645  0.00  0.00    +0.000 C 
ATOM     25  H   UNL     1      -1.989  -6.341  16.517  0.00  0.00    +0.000 HD
ATOM     26  H   UNL     1      -0.858  -4.998  16.370  0.00  0.00    +0.000 HD
ATOM     27  H   UNL     1      -0.697  -6.141  17.708  0.00  0.00    +0.000 HD
ENDBRANCH  18  24
ENDBRANCH   2  18
TORSDOF 4
ENDMDL
MODEL 3
REMARK VINA RESULT:    -4.615     10.881     12.575
REMARK INTER + INTRA:          -5.479
REMARK INTER:                  -5.335
REMARK INTRA:                  -0.144
REMARK UNBOUND:                -0.189
REMARK  Name = 261491
REMARK  4 active torsions:
REMARK  status: ('A' for Active; 'I' for Inactive)
REMARK    1  A    between atoms: C_2  and  C_7
REMARK    2  A    between atoms: C_5  and  C_9
REMARK    3  A    between atoms: C_7  and  C_10
REMARK    4  A    between atoms: C_7  and  C_11
REMARK                            x       y       z     vdW  Elec       q    Type
REMARK                         _______ _______ _______ _____ _____    ______ ____
ROOT
ATOM      1  O   UNL     1      -5.734 -15.028   1.800  0.00  0.00    +0.000 OA
ATOM      2  C   UNL     1      -6.946 -13.385   4.723  0.00  0.00    +0.000 C 
ATOM      3  C   UNL     1      -6.926 -12.265   3.730  0.00  0.00    +0.000 C 
ATOM      4  C   UNL     1      -8.239 -12.750   4.287  0.00  0.00    +0.000 C 
ATOM      5  C   UNL     1      -6.420 -12.767   2.400  0.00  0.00    +0.000 C 
ATOM      6  C   UNL     1      -6.451 -14.646   4.082  0.00  0.00    +0.000 C 
ATOM      7  C   UNL     1      -6.150 -14.249   2.648  0.00  0.00    +0.000 C 
ATOM      8  H   UNL     1      -6.592 -11.276   4.010  0.00  0.00    +0.000 HD
ATOM      9  H   UNL     1      -8.899 -13.314   3.639  0.00  0.00    +0.000 HD
ATOM     10  H   UNL     1      -8.762 -12.096   4.975  0.00  0.00    +0.000 HD
ATOM     11  H   UNL     1      -7.203 -12.671   1.641  0.00  0.00    +0.000 HD
ATOM     12  H   UNL     1      -7.229 -15.414   4.087  0.00  0.00    +0.000 HD
ATOM     13  H   UNL     1      -5.535 -15.045   4.521  0.00  0.00    +0.000 HD
ENDROOT
BRANCH   5  14
ATOM     14  C   UNL     1      -5.146 -12.064   1.967  0.00  0.00    +0.000 C 
ATOM     15  H   UNL     1      -5.155 -11.846   0.892  0.00  0.00    +0.000 HD
ATOM     16  H   UNL     1      -5.025 -11.113   2.496  0.00  0.00    +0.000 HD
ATOM     17  H   UNL     1      -4.268 -12.684   2.174  0.00  0.00    +0.000 HD
ENDBRANCH   5  14
BRANCH   2  18
ATOM     18  C   UNL     1      -6.486 -13.121   6.114  0.00  0.00    +0.000 C 
ATOM     19  H   UNL     1      -6.506 -12.041   6.313  0.00  0.00    +0.000 HD
BRANCH  18  20
ATOM     20  C   UNL     1      -7.405 -13.791   7.144  0.00  0.00    +0.000 C 
ATOM     21  H   UNL     1      -8.393 -14.012   6.728  0.00  0.00    +0.000 HD
ATOM     22  H   UNL     1      -6.970 -14.732   7.496  0.00  0.00    +0.000 HD
ATOM     23  H   UNL     1      -7.549 -13.141   8.014  0.00  0.00    +0.000 HD
ENDBRANCH  18  20
BRANCH  18  24
ATOM     24  C   UNL     1      -5.040 -13.589   6.324  0.00  0.00    +0.000 C 
ATOM     25  H   UNL     1      -4.523 -13.801   5.385  0.00  0.00    +0.000 HD
ATOM     26  H   UNL     1      -5.026 -14.513   6.915  0.00  0.00    +0.000 HD
ATOM     27  H   UNL     1      -4.457 -12.840   6.868  0.00  0.00    +0.000 HD
ENDBRANCH  18  24
ENDBRANCH   2  18
TORSDOF 4
ENDMDL
MODEL 4
REMARK VINA RESULT:    -4.393      1.946      3.671
REMARK INTER + INTRA:          -5.224
REMARK INTER:                  -5.040
REMARK INTRA:                  -0.185
REMARK UNBOUND:                -0.189
REMARK  Name = 261491
REMARK  4 active torsions:
REMARK  status: ('A' for Active; 'I' for Inactive)
REMARK    1  A    between atoms: C_2  and  C_7
REMARK    2  A    between atoms: C_5  and  C_9
REMARK    3  A    between atoms: C_7  and  C_10
REMARK    4  A    between atoms: C_7  and  C_11
REMARK                            x       y       z     vdW  Elec       q    Type
REMARK                         _______ _______ _______ _____ _____    ______ ____
ROOT
ATOM      1  O   UNL     1       3.607 -14.001   2.778  0.00  0.00    +0.000 OA
ATOM      2  C   UNL     1       5.925 -12.378   0.608  0.00  0.00    +0.000 C 
ATOM      3  C   UNL     1       5.644 -13.645  -0.139  0.00  0.00    +0.000 C 
ATOM      4  C   UNL     1       5.218 -12.322  -0.720  0.00  0.00    +0.000 C 
ATOM      5  C   UNL     1       4.669 -14.493   0.640  0.00  0.00    +0.000 C 
ATOM      6  C   UNL     1       5.154 -12.360   1.894  0.00  0.00    +0.000 C 
ATOM      7  C   UNL     1       4.374 -13.662   1.885  0.00  0.00    +0.000 C 
ATOM      8  H   UNL     1       6.434 -14.185  -0.638  0.00  0.00    +0.000 HD
ATOM      9  H   UNL     1       4.162 -12.078  -0.734  0.00  0.00    +0.000 HD
ATOM     10  H   UNL     1       5.757 -11.960  -1.587  0.00  0.00    +0.000 HD
ATOM     11  H   UNL     1       3.743 -14.620   0.069  0.00  0.00    +0.000 HD
ATOM     12  H   UNL     1       4.453 -11.521   1.913  0.00  0.00    +0.000 HD
ATOM     13  H   UNL     1       5.775 -12.344   2.791  0.00  0.00    +0.000 HD
ENDROOT
BRANCH   5  14
ATOM     14  C   UNL     1       5.261 -15.837   1.030  0.00  0.00    +0.000 C 
ATOM     15  H   UNL     1       6.121 -15.716   1.699  0.00  0.00    +0.000 HD
ATOM     16  H   UNL     1       4.520 -16.453   1.551  0.00  0.00    +0.000 HD
ATOM     17  H   UNL     1       5.601 -16.385   0.146  0.00  0.00    +0.000 HD
ENDBRANCH   5  14
BRANCH   2  18
ATOM     18  C   UNL     1       7.323 -11.871   0.664  0.00  0.00    +0.000 C 
ATOM     19  H   UNL     1       7.443 -11.207   1.531  0.00  0.00    +0.000 HD
BRANCH  18  20
ATOM     20  C   UNL     1       8.329 -13.018   0.827  0.00  0.00    +0.000 C 
ATOM     21  H   UNL     1       8.373 -13.379   1.859  0.00  0.00    +0.000 HD
ATOM     22  H   UNL     1       8.058 -13.864   0.186  0.00  0.00    +0.000 HD
ATOM     23  H   UNL     1       9.336 -12.691   0.546  0.00  0.00    +0.000 HD
ENDBRANCH  18  20
BRANCH  18  24
ATOM     24  C   UNL     1       7.671 -11.047  -0.582  0.00  0.00    +0.000 C 
ATOM     25  H   UNL     1       7.303 -10.018  -0.526  0.00  0.00    +0.000 HD
ATOM     26  H   UNL     1       7.219 -11.502  -1.472  0.00  0.00    +0.000 HD
ATOM     27  H   UNL     1       8.752 -11.009  -0.743  0.00  0.00    +0.000 HD
ENDBRANCH  18  24
ENDBRANCH   2  18
TORSDOF 4
ENDMDL
MODEL 5
REMARK VINA RESULT:    -4.386     14.743     15.707
REMARK INTER + INTRA:          -5.216
REMARK INTER:                  -5.016
REMARK INTRA:                  -0.200
REMARK UNBOUND:                -0.189
REMARK  Name = 261491
REMARK  4 active torsions:
REMARK  status: ('A' for Active; 'I' for Inactive)
REMARK    1  A    between atoms: C_2  and  C_7
REMARK    2  A    between atoms: C_5  and  C_9
REMARK    3  A    between atoms: C_7  and  C_10
REMARK    4  A    between atoms: C_7  and  C_11
REMARK                            x       y       z     vdW  Elec       q    Type
REMARK                         _______ _______ _______ _____ _____    ______ ____
ROOT
ATOM      1  O   UNL     1      -3.769  -8.654 -13.180  0.00  0.00    +0.000 OA
ATOM      2  C   UNL     1      -4.546  -6.779 -10.248  0.00  0.00    +0.000 C 
ATOM      3  C   UNL     1      -3.727  -7.900  -9.685  0.00  0.00    +0.000 C 
ATOM      4  C   UNL     1      -3.208  -6.487  -9.625  0.00  0.00    +0.000 C 
ATOM      5  C   UNL     1      -3.301  -8.830 -10.794  0.00  0.00    +0.000 C 
ATOM      6  C   UNL     1      -4.687  -6.943 -11.731  0.00  0.00    +0.000 C 
ATOM      7  C   UNL     1      -3.899  -8.201 -12.050  0.00  0.00    +0.000 C 
ATOM      8  H   UNL     1      -4.000  -8.378  -8.756  0.00  0.00    +0.000 HD
ATOM      9  H   UNL     1      -2.385  -6.209 -10.273  0.00  0.00    +0.000 HD
ATOM     10  H   UNL     1      -3.173  -6.008  -8.653  0.00  0.00    +0.000 HD
ATOM     11  H   UNL     1      -2.210  -8.833 -10.883  0.00  0.00    +0.000 HD
ATOM     12  H   UNL     1      -4.242  -6.095 -12.258  0.00  0.00    +0.000 HD
ATOM     13  H   UNL     1      -5.713  -7.092 -12.072  0.00  0.00    +0.000 HD
ENDROOT
BRANCH   5  14
ATOM     14  C   UNL     1      -3.839 -10.237 -10.602  0.00  0.00    +0.000 C 
ATOM     15  H   UNL     1      -3.052 -10.924 -10.267  0.00  0.00    +0.000 HD
ATOM     16  H   UNL     1      -4.633 -10.252  -9.848  0.00  0.00    +0.000 HD
ATOM     17  H   UNL     1      -4.249 -10.629 -11.538  0.00  0.00    +0.000 HD
ENDBRANCH   5  14
BRANCH   2  18
ATOM     18  C   UNL     1      -5.759  -6.334  -9.509  0.00  0.00    +0.000 C 
ATOM     19  H   UNL     1      -5.644  -5.286  -9.203  0.00  0.00    +0.000 HD
BRANCH  18  20
ATOM     20  C   UNL     1      -7.013  -6.415 -10.391  0.00  0.00    +0.000 C 
ATOM     21  H   UNL     1      -7.080  -7.370 -10.920  0.00  0.00    +0.000 HD
ATOM     22  H   UNL     1      -7.919  -6.302  -9.785  0.00  0.00    +0.000 HD
ATOM     23  H   UNL     1      -7.009  -5.618 -11.142  0.00  0.00    +0.000 HD
ENDBRANCH  18  20
BRANCH  18  24
ATOM     24  C   UNL     1      -5.970  -7.155  -8.230  0.00  0.00    +0.000 C 
ATOM     25  H   UNL     1      -5.072  -7.205  -7.607  0.00  0.00    +0.000 HD
ATOM     26  H   UNL     1      -6.242  -8.186  -8.485  0.00  0.00    +0.000 HD
ATOM     27  H   UNL     1      -6.779  -6.740  -7.622  0.00  0.00    +0.000 HD
ENDBRANCH  18  24
ENDBRANCH   2  18
TORSDOF 4
ENDMDL
MODEL 6
REMARK VINA RESULT:    -4.323     24.703     25.973
REMARK INTER + INTRA:          -5.145
REMARK INTER:                  -4.960
REMARK INTRA:                  -0.185
REMARK UNBOUND:                -0.189
REMARK  Name = 261491
REMARK  4 active torsions:
REMARK  status: ('A' for Active; 'I' for Inactive)
REMARK    1  A    between atoms: C_2  and  C_7
REMARK    2  A    between atoms: C_5  and  C_9
REMARK    3  A    between atoms: C_7  and  C_10
REMARK    4  A    between atoms: C_7  and  C_11
REMARK                            x       y       z     vdW  Elec       q    Type
REMARK                         _______ _______ _______ _____ _____    ______ ____
ROOT
ATOM      1  O   UNL     1       2.938  13.244   3.355  0.00  0.00    +0.000 OA
ATOM      2  C   UNL     1       5.545  12.834   0.957  0.00  0.00    +0.000 C 
ATOM      3  C   UNL     1       6.071  12.047   2.117  0.00  0.00    +0.000 C 
ATOM      4  C   UNL     1       5.710  11.343   0.835  0.00  0.00    +0.000 C 
ATOM      5  C   UNL     1       5.093  12.108   3.263  0.00  0.00    +0.000 C 
ATOM      6  C   UNL     1       4.218  13.437   1.308  0.00  0.00    +0.000 C 
ATOM      7  C   UNL     1       3.950  12.963   2.725  0.00  0.00    +0.000 C 
ATOM      8  H   UNL     1       7.115  12.090   2.392  0.00  0.00    +0.000 HD
ATOM      9  H   UNL     1       4.821  10.724   0.817  0.00  0.00    +0.000 HD
ATOM     10  H   UNL     1       6.522  10.951   0.233  0.00  0.00    +0.000 HD
ATOM     11  H   UNL     1       4.713  11.106   3.487  0.00  0.00    +0.000 HD
ATOM     12  H   UNL     1       3.433  13.058   0.647  0.00  0.00    +0.000 HD
ATOM     13  H   UNL     1       4.205  14.528   1.308  0.00  0.00    +0.000 HD
ENDROOT
BRANCH   5  14
ATOM     14  C   UNL     1       5.697  12.753   4.500  0.00  0.00    +0.000 C 
ATOM     15  H   UNL     1       6.789  12.808   4.429  0.00  0.00    +0.000 HD
ATOM     16  H   UNL     1       5.322  13.773   4.630  0.00  0.00    +0.000 HD
ATOM     17  H   UNL     1       5.449  12.180   5.399  0.00  0.00    +0.000 HD
ENDBRANCH   5  14
BRANCH   2  18
ATOM     18  C   UNL     1       6.483  13.694   0.186  0.00  0.00    +0.000 C 
ATOM     19  H   UNL     1       5.920  14.472  -0.348  0.00  0.00    +0.000 HD
BRANCH  18  20
ATOM     20  C   UNL     1       7.478  14.407   1.111  0.00  0.00    +0.000 C 
ATOM     21  H   UNL     1       8.011  13.704   1.758  0.00  0.00    +0.000 HD
ATOM     22  H   UNL     1       8.224  14.956   0.526  0.00  0.00    +0.000 HD
ATOM     23  H   UNL     1       6.960  15.125   1.756  0.00  0.00    +0.000 HD
ENDBRANCH  18  20
BRANCH  18  24
ATOM     24  C   UNL     1       7.244  12.885  -0.872  0.00  0.00    +0.000 C 
ATOM     25  H   UNL     1       6.760  11.933  -1.106  0.00  0.00    +0.000 HD
ATOM     26  H   UNL     1       8.254  12.654  -0.514  0.00  0.00    +0.000 HD
ATOM     27  H   UNL     1       7.346  13.449  -1.805  0.00  0.00    +0.000 HD
ENDBRANCH  18  24
ENDBRANCH   2  18
TORSDOF 4
ENDMDL
MODEL 7
REMARK VINA RESULT:    -4.323     25.271     26.233
REMARK INTER + INTRA:          -5.145
REMARK INTER:                  -4.950
REMARK INTRA:                  -0.194
REMARK UNBOUND:                -0.189
REMARK  Name = 261491
REMARK  4 active torsions:
REMARK  status: ('A' for Active; 'I' for Inactive)
REMARK    1  A    between atoms: C_2  and  C_7
REMARK    2  A    between atoms: C_5  and  C_9
REMARK    3  A    between atoms: C_7  and  C_10
REMARK    4  A    between atoms: C_7  and  C_11
REMARK                            x       y       z     vdW  Elec       q    Type
REMARK                         _______ _______ _______ _____ _____    ______ ____
ROOT
ATOM      1  O   UNL     1       6.854  13.453  -4.022  0.00  0.00    +0.000 OA
ATOM      2  C   UNL     1       6.833  13.756  -0.469  0.00  0.00    +0.000 C 
ATOM      3  C   UNL     1       8.236  13.300  -0.728  0.00  0.00    +0.000 C 
ATOM      4  C   UNL     1       7.986  14.675  -0.165  0.00  0.00    +0.000 C 
ATOM      5  C   UNL     1       8.445  13.101  -2.208  0.00  0.00    +0.000 C 
ATOM      6  C   UNL     1       6.083  13.862  -1.762  0.00  0.00    +0.000 C 
ATOM      7  C   UNL     1       7.097  13.472  -2.822  0.00  0.00    +0.000 C 
ATOM      8  H   UNL     1       8.713  12.572  -0.089  0.00  0.00    +0.000 HD
ATOM      9  H   UNL     1       8.145  15.534  -0.806  0.00  0.00    +0.000 HD
ATOM     10  H   UNL     1       8.261  14.850   0.868  0.00  0.00    +0.000 HD
ATOM     11  H   UNL     1       9.207  13.796  -2.577  0.00  0.00    +0.000 HD
ATOM     12  H   UNL     1       5.756  14.891  -1.938  0.00  0.00    +0.000 HD
ATOM     13  H   UNL     1       5.231  13.185  -1.845  0.00  0.00    +0.000 HD
ENDROOT
BRANCH   5  14
ATOM     14  C   UNL     1       8.802  11.664  -2.550  0.00  0.00    +0.000 C 
ATOM     15  H   UNL     1       8.142  10.955  -2.037  0.00  0.00    +0.000 HD
ATOM     16  H   UNL     1       8.709  11.485  -3.626  0.00  0.00    +0.000 HD
ATOM     17  H   UNL     1       9.831  11.438  -2.253  0.00  0.00    +0.000 HD
ENDBRANCH   5  14
BRANCH   2  18
ATOM     18  C   UNL     1       6.091  13.180   0.685  0.00  0.00    +0.000 C 
ATOM     19  H   UNL     1       5.074  13.594   0.717  0.00  0.00    +0.000 HD
BRANCH  18  20
ATOM     20  C   UNL     1       5.958  11.656   0.562  0.00  0.00    +0.000 C 
ATOM     21  H   UNL     1       5.441  11.220   1.423  0.00  0.00    +0.000 HD
ATOM     22  H   UNL     1       5.396  11.389  -0.339  0.00  0.00    +0.000 HD
ATOM     23  H   UNL     1       6.946  11.186   0.495  0.00  0.00    +0.000 HD
ENDBRANCH  18  20
BRANCH  18  24
ATOM     24  C   UNL     1       6.762  13.537   2.018  0.00  0.00    +0.000 C 
ATOM     25  H   UNL     1       7.652  14.161   1.890  0.00  0.00    +0.000 HD
ATOM     26  H   UNL     1       7.080  12.625   2.535  0.00  0.00    +0.000 HD
ATOM     27  H   UNL     1       6.072  14.069   2.679  0.00  0.00    +0.000 HD
ENDBRANCH  18  24
ENDBRANCH   2  18
TORSDOF 4
ENDMDL
MODEL 8
REMARK VINA RESULT:    -4.312     13.067     14.674
REMARK INTER + INTRA:          -5.131
REMARK INTER:                  -4.934
REMARK INTRA:                  -0.198
REMARK UNBOUND:                -0.189
REMARK  Name = 261491
REMARK  4 active torsions:
REMARK  status: ('A' for Active; 'I' for Inactive)
REMARK    1  A    between atoms: C_2  and  C_7
REMARK    2  A    between atoms: C_5  and  C_9
REMARK    3  A    between atoms: C_7  and  C_10
REMARK    4  A    between atoms: C_7  and  C_11
REMARK                            x       y       z     vdW  Elec       q    Type
REMARK                         _______ _______ _______ _____ _____    ______ ____
ROOT
ATOM      1  O   UNL     1      -4.334 -11.533 -10.827  0.00  0.00    +0.000 OA
ATOM      2  C   UNL     1      -3.318  -8.235  -9.931  0.00  0.00    +0.000 C 
ATOM      3  C   UNL     1      -3.756  -8.788  -8.611  0.00  0.00    +0.000 C 
ATOM      4  C   UNL     1      -2.308  -8.440  -8.834  0.00  0.00    +0.000 C 
ATOM      5  C   UNL     1      -4.243 -10.205  -8.785  0.00  0.00    +0.000 C 
ATOM      6  C   UNL     1      -3.509  -9.263 -11.005  0.00  0.00    +0.000 C 
ATOM      7  C   UNL     1      -4.062 -10.474 -10.276  0.00  0.00    +0.000 C 
ATOM      8  H   UNL     1      -4.319  -8.186  -7.913  0.00  0.00    +0.000 HD
ATOM      9  H   UNL     1      -1.591  -9.246  -8.934  0.00  0.00    +0.000 HD
ATOM     10  H   UNL     1      -1.915  -7.575  -8.312  0.00  0.00    +0.000 HD
ATOM     11  H   UNL     1      -3.606 -10.893  -8.220  0.00  0.00    +0.000 HD
ATOM     12  H   UNL     1      -2.552  -9.525 -11.465  0.00  0.00    +0.000 HD
ATOM     13  H   UNL     1      -4.224  -8.978 -11.779  0.00  0.00    +0.000 HD
ENDROOT
BRANCH   5  14
ATOM     14  C   UNL     1      -5.703 -10.364  -8.394  0.00  0.00    +0.000 C 
ATOM     15  H   UNL     1      -5.901 -11.361  -7.984  0.00  0.00    +0.000 HD
ATOM     16  H   UNL     1      -5.984  -9.631  -7.630  0.00  0.00    +0.000 HD
ATOM     17  H   UNL     1      -6.356 -10.223  -9.261  0.00  0.00    +0.000 HD
ENDBRANCH   5  14
BRANCH   2  18
ATOM     18  C   UNL     1      -3.678  -6.834 -10.279  0.00  0.00    +0.000 C 
ATOM     19  H   UNL     1      -3.032  -6.136  -9.730  0.00  0.00    +0.000 HD
BRANCH  18  20
ATOM     20  C   UNL     1      -3.476  -6.559 -11.775  0.00  0.00    +0.000 C 
ATOM     21  H   UNL     1      -3.670  -7.447 -12.384  0.00  0.00    +0.000 HD
ATOM     22  H   UNL     1      -4.149  -5.764 -12.116  0.00  0.00    +0.000 HD
ATOM     23  H   UNL     1      -2.448  -6.238 -11.974  0.00  0.00    +0.000 HD
ENDBRANCH  18  20
BRANCH  18  24
ATOM     24  C   UNL     1      -5.125  -6.512  -9.882  0.00  0.00    +0.000 C 
ATOM     25  H   UNL     1      -5.193  -5.701  -9.152  0.00  0.00    +0.000 HD
ATOM     26  H   UNL     1      -5.596  -7.393  -9.430  0.00  0.00    +0.000 HD
ATOM     27  H   UNL     1      -5.722  -6.230 -10.755  0.00  0.00    +0.000 HD
ENDBRANCH  18  24
ENDBRANCH   2  18
TORSDOF 4
ENDMDL
MODEL 9
REMARK VINA RESULT:    -4.303     10.820     12.030
REMARK INTER + INTRA:          -5.122
REMARK INTER:                  -4.923
REMARK INTRA:                  -0.199
REMARK UNBOUND:                -0.189
REMARK  Name = 261491
REMARK  4 active torsions:
REMARK  status: ('A' for Active; 'I' for Inactive)
REMARK    1  A    between atoms: C_2  and  C_7
REMARK    2  A    between atoms: C_5  and  C_9
REMARK    3  A    between atoms: C_7  and  C_10
REMARK    4  A    between atoms: C_7  and  C_11
REMARK                            x       y       z     vdW  Elec       q    Type
REMARK                         _______ _______ _______ _____ _____    ______ ____
ROOT
ATOM      1  O   UNL     1       9.428  -4.806  -9.826  0.00  0.00    +0.000 OA
ATOM      2  C   UNL     1       9.924  -8.244  -9.022  0.00  0.00    +0.000 C 
ATOM      3  C   UNL     1       8.866  -7.850  -8.038  0.00  0.00    +0.000 C 
ATOM      4  C   UNL     1       8.551  -8.853  -9.117  0.00  0.00    +0.000 C 
ATOM      5  C   UNL     1       8.519  -6.393  -8.215  0.00  0.00    +0.000 C 
ATOM      6  C   UNL     1      10.305  -7.064  -9.864  0.00  0.00    +0.000 C 
ATOM      7  C   UNL     1       9.416  -5.939  -9.363  0.00  0.00    +0.000 C 
ATOM      8  H   UNL     1       8.896  -8.200  -7.017  0.00  0.00    +0.000 HD
ATOM      9  H   UNL     1       7.906  -8.549  -9.933  0.00  0.00    +0.000 HD
ATOM     10  H   UNL     1       8.410  -9.884  -8.816  0.00  0.00    +0.000 HD
ATOM     11  H   UNL     1       7.472  -6.291  -8.519  0.00  0.00    +0.000 HD
ATOM     12  H   UNL     1      10.086  -7.253 -10.918  0.00  0.00    +0.000 HD
ATOM     13  H   UNL     1      11.344  -6.748  -9.753  0.00  0.00    +0.000 HD
ENDROOT
BRANCH   5  14
ATOM     14  C   UNL     1       8.808  -5.578  -6.966  0.00  0.00    +0.000 C 
ATOM     15  H   UNL     1       7.954  -4.946  -6.694  0.00  0.00    +0.000 HD
ATOM     16  H   UNL     1       9.021  -6.231  -6.114  0.00  0.00    +0.000 HD
ATOM     17  H   UNL     1       9.672  -4.923  -7.119  0.00  0.00    +0.000 HD
ENDBRANCH   5  14
BRANCH   2  18
ATOM     18  C   UNL     1      11.035  -9.125  -8.570  0.00  0.00    +0.000 C 
ATOM     19  H   UNL     1      10.735 -10.178  -8.659  0.00  0.00    +0.000 HD
BRANCH  18  20
ATOM     20  C   UNL     1      12.288  -8.934  -9.434  0.00  0.00    +0.000 C 
ATOM     21  H   UNL     1      12.818  -9.878  -9.600  0.00  0.00    +0.000 HD
ATOM     22  H   UNL     1      12.023  -8.521 -10.413  0.00  0.00    +0.000 HD
ATOM     23  H   UNL     1      12.987  -8.241  -8.954  0.00  0.00    +0.000 HD
ENDBRANCH  18  20
BRANCH  18  24
ATOM     24  C   UNL     1      11.379  -8.880  -7.095  0.00  0.00    +0.000 C 
ATOM     25  H   UNL     1      11.980  -9.685  -6.661  0.00  0.00    +0.000 HD
ATOM     26  H   UNL     1      10.460  -8.809  -6.501  0.00  0.00    +0.000 HD
ATOM     27  H   UNL     1      11.929  -7.943  -6.966  0.00  0.00    +0.000 HD
ENDBRANCH  18  24
ENDBRANCH   2  18
TORSDOF 4
ENDMDL
MODEL 10
REMARK VINA RESULT:    -4.246     24.686     26.006
REMARK INTER + INTRA:          -5.056
REMARK INTER:                  -4.866
REMARK INTRA:                  -0.189
REMARK UNBOUND:                -0.189
REMARK  Name = 261491
REMARK  4 active torsions:
REMARK  status: ('A' for Active; 'I' for Inactive)
REMARK    1  A    between atoms: C_2  and  C_7
REMARK    2  A    between atoms: C_5  and  C_9
REMARK    3  A    between atoms: C_7  and  C_10
REMARK    4  A    between atoms: C_7  and  C_11
REMARK                            x       y       z     vdW  Elec       q    Type
REMARK                         _______ _______ _______ _____ _____    ______ ____
ROOT
ATOM      1  O   UNL     1      16.123  13.533   2.135  0.00  0.00    +0.000 OA
ATOM      2  C   UNL     1      16.624  10.010   2.354  0.00  0.00    +0.000 C 
ATOM      3  C   UNL     1      15.149  10.094   2.115  0.00  0.00    +0.000 C 
ATOM      4  C   UNL     1      16.043   9.469   1.076  0.00  0.00    +0.000 C 
ATOM      5  C   UNL     1      14.729  11.538   2.001  0.00  0.00    +0.000 C 
ATOM      6  C   UNL     1      17.212  11.388   2.412  0.00  0.00    +0.000 C 
ATOM      7  C   UNL     1      16.033  12.313   2.175  0.00  0.00    +0.000 C 
ATOM      8  H   UNL     1      14.461   9.449   2.642  0.00  0.00    +0.000 HD
ATOM      9  H   UNL     1      16.224  10.011   0.155  0.00  0.00    +0.000 HD
ATOM     10  H   UNL     1      15.978   8.396   0.940  0.00  0.00    +0.000 HD
ATOM     11  H   UNL     1      14.328  11.735   1.002  0.00  0.00    +0.000 HD
ATOM     12  H   UNL     1      17.947  11.529   1.615  0.00  0.00    +0.000 HD
ATOM     13  H   UNL     1      17.657  11.647   3.375  0.00  0.00    +0.000 HD
ENDROOT
BRANCH   5  14
ATOM     14  C   UNL     1      13.733  11.933   3.078  0.00  0.00    +0.000 C 
ATOM     15  H   UNL     1      14.167  11.833   4.080  0.00  0.00    +0.000 HD
ATOM     16  H   UNL     1      13.420  12.976   2.957  0.00  0.00    +0.000 HD
ATOM     17  H   UNL     1      12.841  11.301   3.035  0.00  0.00    +0.000 HD
ENDBRANCH   5  14
BRANCH   2  18
ATOM     18  C   UNL     1      17.137   9.026   3.346  0.00  0.00    +0.000 C 
ATOM     19  H   UNL     1      18.179   9.263   3.601  0.00  0.00    +0.000 HD
BRANCH  18  20
ATOM     20  C   UNL     1      16.329   9.070   4.649  0.00  0.00    +0.000 C 
ATOM     21  H   UNL     1      15.447   9.712   4.562  0.00  0.00    +0.000 HD
ATOM     22  H   UNL     1      15.988   8.067   4.927  0.00  0.00    +0.000 HD
ATOM     23  H   UNL     1      16.942   9.458   5.471  0.00  0.00    +0.000 HD
ENDBRANCH  18  20
BRANCH  18  24
ATOM     24  C   UNL     1      17.129   7.601   2.777  0.00  0.00    +0.000 C 
ATOM     25  H   UNL     1      18.046   7.050   3.004  0.00  0.00    +0.000 HD
ATOM     26  H   UNL     1      17.033   7.632   1.686  0.00  0.00    +0.000 HD
ATOM     27  H   UNL     1      16.285   7.024   3.167  0.00  0.00    +0.000 HD
ENDBRANCH  18  24
ENDBRANCH   2  18
TORSDOF 4
ENDMDL
