MODEL 1
REMARK VINA RESULT:    -4.431      0.000      0.000
REMARK INTER + INTRA:          -4.431
REMARK INTER:                  -4.431
REMARK INTRA:                   0.000
REMARK UNBOUND:                 0.000
REMARK  Name = 7222
REMARK  0 active torsions:
REMARK  status: ('A' for Active; 'I' for Inactive)
REMARK                            x       y       z     vdW  Elec       q    Type
REMARK                         _______ _______ _______ _____ _____    ______ ____
ROOT
ATOM      1  S   UNL     1       0.182  -5.622  16.231  0.00  0.00    +0.000 S 
ATOM      2  N   UNL     1       2.579  -6.571  16.176  0.00  0.00    +0.000 NA
ATOM      3  C   UNL     1       1.434  -4.583  15.660  0.00  0.00    +0.000 A 
ATOM      4  C   UNL     1       2.652  -5.269  15.704  0.00  0.00    +0.000 A 
ATOM      5  C   UNL     1       1.345  -3.257  15.207  0.00  0.00    +0.000 A 
ATOM      6  C   UNL     1       3.820  -4.602  15.278  0.00  0.00    +0.000 A 
ATOM      7  C   UNL     1       2.516  -2.620  14.791  0.00  0.00    +0.000 A 
ATOM      8  C   UNL     1       3.740  -3.281  14.825  0.00  0.00    +0.000 A 
ATOM      9  C   UNL     1       1.335  -6.861  16.480  0.00  0.00    +0.000 A 
ATOM     10  H   UNL     1       0.394  -2.735  15.177  0.00  0.00    +0.000 HD
ATOM     11  H   UNL     1       4.780  -5.108  15.301  0.00  0.00    +0.000 HD
ATOM     12  H   UNL     1       2.470  -1.594  14.436  0.00  0.00    +0.000 HD
ATOM     13  H   UNL     1       4.640  -2.769  14.498  0.00  0.00    +0.000 HD
ATOM     14  H   UNL     1       1.050  -7.828  16.869  0.00  0.00    +0.000 HD
ENDROOT
TORSDOF 0
ENDMDL
MODEL 2
REMARK VINA RESULT:    -4.363     16.987     17.309
REMARK INTER + INTRA:          -4.363
REMARK INTER:                  -4.363
REMARK INTRA:                   0.000
REMARK UNBOUND:                 0.000
REMARK  Name = 7222
REMARK  0 active torsions:
REMARK  status: ('A' for Active; 'I' for Inactive)
REMARK                            x       y       z     vdW  Elec       q    Type
REMARK                         _______ _______ _______ _____ _____    ______ ____
ROOT
ATOM      1  S   UNL     1       6.522 -13.209  -0.804  0.00  0.00    +0.000 S 
ATOM      2  N   UNL     1       6.023 -13.618   1.692  0.00  0.00    +0.000 NA
ATOM      3  C   UNL     1       5.119 -12.456  -0.142  0.00  0.00    +0.000 A 
ATOM      4  C   UNL     1       5.017 -12.792   1.212  0.00  0.00    +0.000 A 
ATOM      5  C   UNL     1       4.178 -11.629  -0.773  0.00  0.00    +0.000 A 
ATOM      6  C   UNL     1       3.933 -12.280   1.956  0.00  0.00    +0.000 A 
ATOM      7  C   UNL     1       3.114 -11.135  -0.014  0.00  0.00    +0.000 A 
ATOM      8  C   UNL     1       2.991 -11.455   1.334  0.00  0.00    +0.000 A 
ATOM      9  C   UNL     1       6.863 -13.898   0.724  0.00  0.00    +0.000 A 
ATOM     10  H   UNL     1       4.268 -11.375  -1.825  0.00  0.00    +0.000 HD
ATOM     11  H   UNL     1       3.827 -12.524   3.010  0.00  0.00    +0.000 HD
ATOM     12  H   UNL     1       2.374 -10.492  -0.483  0.00  0.00    +0.000 HD
ATOM     13  H   UNL     1       2.157 -11.062   1.909  0.00  0.00    +0.000 HD
ATOM     14  H   UNL     1       7.727 -14.530   0.878  0.00  0.00    +0.000 HD
ENDROOT
TORSDOF 0
ENDMDL
MODEL 3
REMARK VINA RESULT:    -4.275     16.115     16.416
REMARK INTER + INTRA:          -4.275
REMARK INTER:                  -4.275
REMARK INTRA:                   0.000
REMARK UNBOUND:                 0.000
REMARK  Name = 7222
REMARK  0 active torsions:
REMARK  status: ('A' for Active; 'I' for Inactive)
REMARK                            x       y       z     vdW  Elec       q    Type
REMARK                         _______ _______ _______ _____ _____    ______ ____
ROOT
ATOM      1  S   UNL     1       4.587 -15.808   2.595  0.00  0.00    +0.000 S 
ATOM      2  N   UNL     1       5.662 -14.082   1.009  0.00  0.00    +0.000 NA
ATOM      3  C   UNL     1       3.897 -14.229   2.556  0.00  0.00    +0.000 A 
ATOM      4  C   UNL     1       4.609 -13.442   1.646  0.00  0.00    +0.000 A 
ATOM      5  C   UNL     1       2.805 -13.722   3.279  0.00  0.00    +0.000 A 
ATOM      6  C   UNL     1       4.212 -12.101   1.454  0.00  0.00    +0.000 A 
ATOM      7  C   UNL     1       2.432 -12.392   3.071  0.00  0.00    +0.000 A 
ATOM      8  C   UNL     1       3.125 -11.589   2.170  0.00  0.00    +0.000 A 
ATOM      9  C   UNL     1       5.741 -15.323   1.430  0.00  0.00    +0.000 A 
ATOM     10  H   UNL     1       2.260 -14.343   3.983  0.00  0.00    +0.000 HD
ATOM     11  H   UNL     1       4.746 -11.466   0.754  0.00  0.00    +0.000 HD
ATOM     12  H   UNL     1       1.590 -11.980   3.620  0.00  0.00    +0.000 HD
ATOM     13  H   UNL     1       2.821 -10.557   2.021  0.00  0.00    +0.000 HD
ATOM     14  H   UNL     1       6.494 -16.006   1.063  0.00  0.00    +0.000 HD
ENDROOT
TORSDOF 0
ENDMDL
MODEL 4
REMARK VINA RESULT:    -4.223     16.583     16.945
REMARK INTER + INTRA:          -4.223
REMARK INTER:                  -4.223
REMARK INTRA:                   0.000
REMARK UNBOUND:                 0.000
REMARK  Name = 7222
REMARK  0 active torsions:
REMARK  status: ('A' for Active; 'I' for Inactive)
REMARK                            x       y       z     vdW  Elec       q    Type
REMARK                         _______ _______ _______ _____ _____    ______ ____
ROOT
ATOM      1  S   UNL     1       3.335 -13.539   3.157  0.00  0.00    +0.000 S 
ATOM      2  N   UNL     1       3.088 -11.449   1.666  0.00  0.00    +0.000 NA
ATOM      3  C   UNL     1       4.226 -13.507   1.681  0.00  0.00    +0.000 A 
ATOM      4  C   UNL     1       3.966 -12.305   1.016  0.00  0.00    +0.000 A 
ATOM      5  C   UNL     1       5.093 -14.475   1.151  0.00  0.00    +0.000 A 
ATOM      6  C   UNL     1       4.597 -12.067  -0.223  0.00  0.00    +0.000 A 
ATOM      7  C   UNL     1       5.705 -14.215  -0.078  0.00  0.00    +0.000 A 
ATOM      8  C   UNL     1       5.462 -13.026  -0.759  0.00  0.00    +0.000 A 
ATOM      9  C   UNL     1       2.697 -11.994   2.794  0.00  0.00    +0.000 A 
ATOM     10  H   UNL     1       5.288 -15.405   1.676  0.00  0.00    +0.000 HD
ATOM     11  H   UNL     1       4.414 -11.142  -0.763  0.00  0.00    +0.000 HD
ATOM     12  H   UNL     1       6.380 -14.951  -0.507  0.00  0.00    +0.000 HD
ATOM     13  H   UNL     1       5.946 -12.841  -1.713  0.00  0.00    +0.000 HD
ATOM     14  H   UNL     1       2.008 -11.497   3.462  0.00  0.00    +0.000 HD
ENDROOT
TORSDOF 0
ENDMDL
MODEL 5
REMARK VINA RESULT:    -4.195      1.830      2.453
REMARK INTER + INTRA:          -4.195
REMARK INTER:                  -4.195
REMARK INTRA:                   0.000
REMARK UNBOUND:                 0.000
REMARK  Name = 7222
REMARK  0 active torsions:
REMARK  status: ('A' for Active; 'I' for Inactive)
REMARK                            x       y       z     vdW  Elec       q    Type
REMARK                         _______ _______ _______ _____ _____    ______ ____
ROOT
ATOM      1  S   UNL     1       4.720  -6.237  15.228  0.00  0.00    +0.000 S 
ATOM      2  N   UNL     1       2.307  -7.088  15.551  0.00  0.00    +0.000 NA
ATOM      3  C   UNL     1       3.458  -5.062  15.233  0.00  0.00    +0.000 A 
ATOM      4  C   UNL     1       2.232  -5.709  15.419  0.00  0.00    +0.000 A 
ATOM      5  C   UNL     1       3.546  -3.669  15.084  0.00  0.00    +0.000 A 
ATOM      6  C   UNL     1       1.055  -4.931  15.456  0.00  0.00    +0.000 A 
ATOM      7  C   UNL     1       2.366  -2.922  15.124  0.00  0.00    +0.000 A 
ATOM      8  C   UNL     1       1.134  -3.543  15.308  0.00  0.00    +0.000 A 
ATOM      9  C   UNL     1       3.559  -7.471  15.467  0.00  0.00    +0.000 A 
ATOM     10  H   UNL     1       4.503  -3.178  14.940  0.00  0.00    +0.000 HD
ATOM     11  H   UNL     1       0.089  -5.406  15.599  0.00  0.00    +0.000 HD
ATOM     12  H   UNL     1       2.411  -1.843  15.011  0.00  0.00    +0.000 HD
ATOM     13  H   UNL     1       0.227  -2.947  15.337  0.00  0.00    +0.000 HD
ATOM     14  H   UNL     1       3.848  -8.510  15.543  0.00  0.00    +0.000 HD
ENDROOT
TORSDOF 0
ENDMDL
MODEL 6
REMARK VINA RESULT:    -4.130     22.551     23.475
REMARK INTER + INTRA:          -4.130
REMARK INTER:                  -4.130
REMARK INTRA:                   0.000
REMARK UNBOUND:                 0.000
REMARK  Name = 7222
REMARK  0 active torsions:
REMARK  status: ('A' for Active; 'I' for Inactive)
REMARK                            x       y       z     vdW  Elec       q    Type
REMARK                         _______ _______ _______ _____ _____    ______ ____
ROOT
ATOM      1  S   UNL     1      16.174   9.389   5.639  0.00  0.00    +0.000 S 
ATOM      2  N   UNL     1      14.635  11.073   4.437  0.00  0.00    +0.000 NA
ATOM      3  C   UNL     1      16.155   9.356   3.916  0.00  0.00    +0.000 A 
ATOM      4  C   UNL     1      15.269  10.332   3.450  0.00  0.00    +0.000 A 
ATOM      5  C   UNL     1      16.871   8.526   3.039  0.00  0.00    +0.000 A 
ATOM      6  C   UNL     1      15.096  10.481   2.057  0.00  0.00    +0.000 A 
ATOM      7  C   UNL     1      16.682   8.693   1.665  0.00  0.00    +0.000 A 
ATOM      8  C   UNL     1      15.806   9.658   1.177  0.00  0.00    +0.000 A 
ATOM      9  C   UNL     1      15.034  10.664   5.619  0.00  0.00    +0.000 A 
ATOM     10  H   UNL     1      17.557   7.771   3.412  0.00  0.00    +0.000 HD
ATOM     11  H   UNL     1      14.414  11.231   1.666  0.00  0.00    +0.000 HD
ATOM     12  H   UNL     1      17.227   8.062   0.968  0.00  0.00    +0.000 HD
ATOM     13  H   UNL     1      15.672   9.774   0.106  0.00  0.00    +0.000 HD
ATOM     14  H   UNL     1      14.665  11.106   6.534  0.00  0.00    +0.000 HD
ENDROOT
TORSDOF 0
ENDMDL
MODEL 7
REMARK VINA RESULT:    -4.103     19.573     20.186
REMARK INTER + INTRA:          -4.103
REMARK INTER:                  -4.103
REMARK INTRA:                   0.000
REMARK UNBOUND:                 0.000
REMARK  Name = 7222
REMARK  0 active torsions:
REMARK  status: ('A' for Active; 'I' for Inactive)
REMARK                            x       y       z     vdW  Elec       q    Type
REMARK                         _______ _______ _______ _____ _____    ______ ____
ROOT
ATOM      1  S   UNL     1      12.164  -9.606  -2.904  0.00  0.00    +0.000 S 
ATOM      2  N   UNL     1      10.739 -11.752  -3.003  0.00  0.00    +0.000 NA
ATOM      3  C   UNL     1      10.803  -9.704  -1.850  0.00  0.00    +0.000 A 
ATOM      4  C   UNL     1      10.161 -10.930  -2.047  0.00  0.00    +0.000 A 
ATOM      5  C   UNL     1      10.337  -8.764  -0.917  0.00  0.00    +0.000 A 
ATOM      6  C   UNL     1       9.012 -11.223  -1.281  0.00  0.00    +0.000 A 
ATOM      7  C   UNL     1       9.198  -9.079  -0.171  0.00  0.00    +0.000 A 
ATOM      8  C   UNL     1       8.542 -10.292  -0.349  0.00  0.00    +0.000 A 
ATOM      9  C   UNL     1      11.792 -11.160  -3.514  0.00  0.00    +0.000 A 
ATOM     10  H   UNL     1      10.845  -7.815  -0.773  0.00  0.00    +0.000 HD
ATOM     11  H   UNL     1       8.492 -12.168  -1.412  0.00  0.00    +0.000 HD
ATOM     12  H   UNL     1       8.821  -8.366   0.556  0.00  0.00    +0.000 HD
ATOM     13  H   UNL     1       7.658 -10.520   0.239  0.00  0.00    +0.000 HD
ATOM     14  H   UNL     1      12.396 -11.624  -4.281  0.00  0.00    +0.000 HD
ENDROOT
TORSDOF 0
ENDMDL
MODEL 8
REMARK VINA RESULT:    -3.893     24.091     25.059
REMARK INTER + INTRA:          -3.893
REMARK INTER:                  -3.893
REMARK INTRA:                   0.000
REMARK UNBOUND:                 0.000
REMARK  Name = 7222
REMARK  0 active torsions:
REMARK  status: ('A' for Active; 'I' for Inactive)
REMARK                            x       y       z     vdW  Elec       q    Type
REMARK                         _______ _______ _______ _____ _____    ______ ____
ROOT
ATOM      1  S   UNL     1      19.418   7.818   2.783  0.00  0.00    +0.000 S 
ATOM      2  N   UNL     1      19.085   8.712   0.387  0.00  0.00    +0.000 NA
ATOM      3  C   UNL     1      17.940   8.636   2.440  0.00  0.00    +0.000 A 
ATOM      4  C   UNL     1      17.943   9.043   1.102  0.00  0.00    +0.000 A 
ATOM      5  C   UNL     1      16.855   8.898   3.292  0.00  0.00    +0.000 A 
ATOM      6  C   UNL     1      16.820   9.737   0.603  0.00  0.00    +0.000 A 
ATOM      7  C   UNL     1      15.756   9.586   2.774  0.00  0.00    +0.000 A 
ATOM      8  C   UNL     1      15.736  10.002   1.446  0.00  0.00    +0.000 A 
ATOM      9  C   UNL     1      19.922   8.070   1.168  0.00  0.00    +0.000 A 
ATOM     10  H   UNL     1      16.864   8.577   4.329  0.00  0.00    +0.000 HD
ATOM     11  H   UNL     1      16.794  10.066  -0.432  0.00  0.00    +0.000 HD
ATOM     12  H   UNL     1      14.906   9.800   3.416  0.00  0.00    +0.000 HD
ATOM     13  H   UNL     1      14.873  10.536   1.060  0.00  0.00    +0.000 HD
ATOM     14  H   UNL     1      20.880   7.716   0.814  0.00  0.00    +0.000 HD
ENDROOT
TORSDOF 0
ENDMDL
MODEL 9
REMARK VINA RESULT:    -3.853     27.032     28.215
REMARK INTER + INTRA:          -3.853
REMARK INTER:                  -3.853
REMARK INTRA:                   0.000
REMARK UNBOUND:                 0.000
REMARK  Name = 7222
REMARK  0 active torsions:
REMARK  status: ('A' for Active; 'I' for Inactive)
REMARK                            x       y       z     vdW  Elec       q    Type
REMARK                         _______ _______ _______ _____ _____    ______ ____
ROOT
ATOM      1  S   UNL     1       7.194  13.543  -3.573  0.00  0.00    +0.000 S 
ATOM      2  N   UNL     1       9.248  11.996  -3.778  0.00  0.00    +0.000 NA
ATOM      3  C   UNL     1       7.975  13.459  -5.108  0.00  0.00    +0.000 A 
ATOM      4  C   UNL     1       9.056  12.577  -5.023  0.00  0.00    +0.000 A 
ATOM      5  C   UNL     1       7.653  14.125  -6.301  0.00  0.00    +0.000 A 
ATOM      6  C   UNL     1       9.842  12.356  -6.174  0.00  0.00    +0.000 A 
ATOM      7  C   UNL     1       8.447  13.889  -7.426  0.00  0.00    +0.000 A 
ATOM      8  C   UNL     1       9.528  13.016  -7.367  0.00  0.00    +0.000 A 
ATOM      9  C   UNL     1       8.331  12.429  -2.944  0.00  0.00    +0.000 A 
ATOM     10  H   UNL     1       6.811  14.808  -6.355  0.00  0.00    +0.000 HD
ATOM     11  H   UNL     1      10.689  11.677  -6.139  0.00  0.00    +0.000 HD
ATOM     12  H   UNL     1       8.215  14.395  -8.360  0.00  0.00    +0.000 HD
ATOM     13  H   UNL     1      10.134  12.845  -8.252  0.00  0.00    +0.000 HD
ATOM     14  H   UNL     1       8.292  12.104  -1.914  0.00  0.00    +0.000 HD
ENDROOT
TORSDOF 0
ENDMDL
MODEL 10
REMARK VINA RESULT:    -3.805     16.060     17.015
REMARK INTER + INTRA:          -3.805
REMARK INTER:                  -3.805
REMARK INTRA:                   0.000
REMARK UNBOUND:                 0.000
REMARK  Name = 7222
REMARK  0 active torsions:
REMARK  status: ('A' for Active; 'I' for Inactive)
REMARK                            x       y       z     vdW  Elec       q    Type
REMARK                         _______ _______ _______ _____ _____    ______ ____
ROOT
ATOM      1  S   UNL     1      -8.310 -13.846   2.833  0.00  0.00    +0.000 S 
ATOM      2  N   UNL     1      -5.972 -12.839   3.242  0.00  0.00    +0.000 NA
ATOM      3  C   UNL     1      -7.739 -13.799   4.459  0.00  0.00    +0.000 A 
ATOM      4  C   UNL     1      -6.465 -13.223   4.480  0.00  0.00    +0.000 A 
ATOM      5  C   UNL     1      -8.373 -14.239   5.633  0.00  0.00    +0.000 A 
ATOM      6  C   UNL     1      -5.804 -13.085   5.719  0.00  0.00    +0.000 A 
ATOM      7  C   UNL     1      -7.697 -14.090   6.846  0.00  0.00    +0.000 A 
ATOM      8  C   UNL     1      -6.428 -13.520   6.892  0.00  0.00    +0.000 A 
ATOM      9  C   UNL     1      -6.853 -13.118   2.310  0.00  0.00    +0.000 A 
ATOM     10  H   UNL     1      -9.362 -14.684   5.604  0.00  0.00    +0.000 HD
ATOM     11  H   UNL     1      -4.814 -12.641   5.766  0.00  0.00    +0.000 HD
ATOM     12  H   UNL     1      -8.169 -14.424   7.766  0.00  0.00    +0.000 HD
ATOM     13  H   UNL     1      -5.918 -13.413   7.844  0.00  0.00    +0.000 HD
ATOM     14  H   UNL     1      -6.674 -12.901   1.267  0.00  0.00    +0.000 HD
ENDROOT
TORSDOF 0
ENDMDL
