MODEL 1
REMARK VINA RESULT:    -4.702      0.000      0.000
REMARK INTER + INTRA:          -5.495
REMARK INTER:                  -5.358
REMARK INTRA:                  -0.136
REMARK UNBOUND:                -0.105
REMARK  Name = 249286
REMARK  4 active torsions:
REMARK  status: ('A' for Active; 'I' for Inactive)
REMARK    1  A    between atoms: C_2  and  C_7
REMARK    2  A    between atoms: C_5  and  C_9
REMARK    3  A    between atoms: C_7  and  C_10
REMARK    4  A    between atoms: C_7  and  C_11
REMARK                            x       y       z     vdW  Elec       q    Type
REMARK                         _______ _______ _______ _____ _____    ______ ____
ROOT
ATOM      1  O   UNL     1      19.479   7.315   2.761  0.00  0.00    +0.000 OA
ATOM      2  C   UNL     1      16.377   8.853   2.290  0.00  0.00    +0.000 C 
ATOM      3  C   UNL     1      17.109   9.086   0.920  0.00  0.00    +0.000 C 
ATOM      4  C   UNL     1      15.748   9.607   1.172  0.00  0.00    +0.000 C 
ATOM      5  C   UNL     1      18.524   9.147   1.415  0.00  0.00    +0.000 C 
ATOM      6  C   UNL     1      17.044   7.574   2.680  0.00  0.00    +0.000 C 
ATOM      7  C   UNL     1      18.503   7.921   2.352  0.00  0.00    +0.000 C 
ATOM      8  H   UNL     1      17.064   8.316   0.145  0.00  0.00    +0.000 HD
ATOM      9  H   UNL     1      14.917   9.101   0.677  0.00  0.00    +0.000 HD
ATOM     10  H   UNL     1      15.692  10.656   0.915  0.00  0.00    +0.000 HD
ATOM     11  H   UNL     1      18.731  10.061   1.982  0.00  0.00    +0.000 HD
ATOM     12  H   UNL     1      16.724   6.747   2.037  0.00  0.00    +0.000 HD
ATOM     13  H   UNL     1      16.967   7.250   3.715  0.00  0.00    +0.000 HD
ENDROOT
BRANCH   5  14
ATOM     14  C   UNL     1      19.547   8.992   0.307  0.00  0.00    +0.000 C 
ATOM     15  H   UNL     1      19.503   7.985  -0.123  0.00  0.00    +0.000 HD
ATOM     16  H   UNL     1      19.373   9.703  -0.509  0.00  0.00    +0.000 HD
ATOM     17  H   UNL     1      20.560   9.160   0.688  0.00  0.00    +0.000 HD
ENDBRANCH   5  14
BRANCH   2  18
ATOM     18  C   UNL     1      16.458   9.811   3.463  0.00  0.00    +0.000 C 
ATOM     19  H   UNL     1      17.428  10.322   3.502  0.00  0.00    +0.000 HD
BRANCH  18  20
ATOM     20  C   UNL     1      15.390  10.902   3.353  0.00  0.00    +0.000 C 
ATOM     21  H   UNL     1      14.578  10.807   4.083  0.00  0.00    +0.000 HD
ATOM     22  H   UNL     1      15.856  11.871   3.578  0.00  0.00    +0.000 HD
ATOM     23  H   UNL     1      15.013  11.030   2.332  0.00  0.00    +0.000 HD
ENDBRANCH  18  20
BRANCH  18  24
ATOM     24  C   UNL     1      16.315   9.063   4.790  0.00  0.00    +0.000 C 
ATOM     25  H   UNL     1      15.265   8.865   5.030  0.00  0.00    +0.000 HD
ATOM     26  H   UNL     1      16.739   9.649   5.615  0.00  0.00    +0.000 HD
ATOM     27  H   UNL     1      16.857   8.113   4.798  0.00  0.00    +0.000 HD
ENDBRANCH  18  24
ENDBRANCH   2  18
TORSDOF 4
ENDMDL
MODEL 2
REMARK VINA RESULT:    -4.506     29.075     30.178
REMARK INTER + INTRA:          -5.270
REMARK INTER:                  -5.228
REMARK INTRA:                  -0.042
REMARK UNBOUND:                -0.105
REMARK  Name = 249286
REMARK  4 active torsions:
REMARK  status: ('A' for Active; 'I' for Inactive)
REMARK    1  A    between atoms: C_2  and  C_7
REMARK    2  A    between atoms: C_5  and  C_9
REMARK    3  A    between atoms: C_7  and  C_10
REMARK    4  A    between atoms: C_7  and  C_11
REMARK                            x       y       z     vdW  Elec       q    Type
REMARK                         _______ _______ _______ _____ _____    ______ ____
ROOT
ATOM      1  O   UNL     1      -5.578  -8.949  -7.589  0.00  0.00    +0.000 OA
ATOM      2  C   UNL     1      -3.344  -7.948 -10.084  0.00  0.00    +0.000 C 
ATOM      3  C   UNL     1      -4.014  -6.600  -9.635  0.00  0.00    +0.000 C 
ATOM      4  C   UNL     1      -3.002  -6.643 -10.713  0.00  0.00    +0.000 C 
ATOM      5  C   UNL     1      -5.361  -7.126  -9.237  0.00  0.00    +0.000 C 
ATOM      6  C   UNL     1      -3.459  -8.689  -8.792  0.00  0.00    +0.000 C 
ATOM      7  C   UNL     1      -4.907  -8.349  -8.414  0.00  0.00    +0.000 C 
ATOM      8  H   UNL     1      -3.608  -6.053  -8.779  0.00  0.00    +0.000 HD
ATOM      9  H   UNL     1      -2.007  -6.261 -10.482  0.00  0.00    +0.000 HD
ATOM     10  H   UNL     1      -3.360  -6.118 -11.587  0.00  0.00    +0.000 HD
ATOM     11  H   UNL     1      -5.959  -7.442 -10.098  0.00  0.00    +0.000 HD
ATOM     12  H   UNL     1      -2.787  -8.272  -8.033  0.00  0.00    +0.000 HD
ATOM     13  H   UNL     1      -3.326  -9.769  -8.806  0.00  0.00    +0.000 HD
ENDROOT
BRANCH   5  14
ATOM     14  C   UNL     1      -6.157  -6.146  -8.397  0.00  0.00    +0.000 C 
ATOM     15  H   UNL     1      -5.645  -5.178  -8.344  0.00  0.00    +0.000 HD
ATOM     16  H   UNL     1      -7.152  -5.966  -8.817  0.00  0.00    +0.000 HD
ATOM     17  H   UNL     1      -6.285  -6.524  -7.377  0.00  0.00    +0.000 HD
ENDBRANCH   5  14
BRANCH   2  18
ATOM     18  C   UNL     1      -3.886  -8.830 -11.192  0.00  0.00    +0.000 C 
ATOM     19  H   UNL     1      -4.939  -8.613 -11.404  0.00  0.00    +0.000 HD
BRANCH  18  20
ATOM     20  C   UNL     1      -3.118  -8.604 -12.496  0.00  0.00    +0.000 C 
ATOM     21  H   UNL     1      -2.393  -9.393 -12.730  0.00  0.00    +0.000 HD
ATOM     22  H   UNL     1      -3.832  -8.626 -13.330  0.00  0.00    +0.000 HD
ATOM     23  H   UNL     1      -2.674  -7.604 -12.564  0.00  0.00    +0.000 HD
ENDBRANCH  18  20
BRANCH  18  24
ATOM     24  C   UNL     1      -3.827 -10.306 -10.792  0.00  0.00    +0.000 C 
ATOM     25  H   UNL     1      -4.269 -10.473  -9.803  0.00  0.00    +0.000 HD
ATOM     26  H   UNL     1      -2.790 -10.660 -10.755  0.00  0.00    +0.000 HD
ATOM     27  H   UNL     1      -4.333 -10.957 -11.511  0.00  0.00    +0.000 HD
ENDBRANCH  18  24
ENDBRANCH   2  18
TORSDOF 4
ENDMDL
MODEL 3
REMARK VINA RESULT:    -4.471      1.939      3.575
REMARK INTER + INTRA:          -5.229
REMARK INTER:                  -5.085
REMARK INTRA:                  -0.144
REMARK UNBOUND:                -0.105
REMARK  Name = 249286
REMARK  4 active torsions:
REMARK  status: ('A' for Active; 'I' for Inactive)
REMARK    1  A    between atoms: C_2  and  C_7
REMARK    2  A    between atoms: C_5  and  C_9
REMARK    3  A    between atoms: C_7  and  C_10
REMARK    4  A    between atoms: C_7  and  C_11
REMARK                            x       y       z     vdW  Elec       q    Type
REMARK                         _______ _______ _______ _____ _____    ______ ____
ROOT
ATOM      1  O   UNL     1      16.105   9.607   0.528  0.00  0.00    +0.000 OA
ATOM      2  C   UNL     1      16.901   8.936   3.864  0.00  0.00    +0.000 C 
ATOM      3  C   UNL     1      15.539   9.713   3.965  0.00  0.00    +0.000 C 
ATOM      4  C   UNL     1      16.262   9.251   5.170  0.00  0.00    +0.000 C 
ATOM      5  C   UNL     1      15.673  10.584   2.751  0.00  0.00    +0.000 C 
ATOM      6  C   UNL     1      16.697   8.312   2.522  0.00  0.00    +0.000 C 
ATOM      7  C   UNL     1      16.154   9.519   1.744  0.00  0.00    +0.000 C 
ATOM      8  H   UNL     1      14.596   9.166   3.876  0.00  0.00    +0.000 HD
ATOM      9  H   UNL     1      15.848   8.395   5.706  0.00  0.00    +0.000 HD
ATOM     10  H   UNL     1      16.368  10.061   5.879  0.00  0.00    +0.000 HD
ATOM     11  H   UNL     1      16.430  11.365   2.877  0.00  0.00    +0.000 HD
ATOM     12  H   UNL     1      15.924   7.537   2.558  0.00  0.00    +0.000 HD
ATOM     13  H   UNL     1      17.565   7.904   2.008  0.00  0.00    +0.000 HD
ENDROOT
BRANCH   5  14
ATOM     14  C   UNL     1      14.360  11.212   2.324  0.00  0.00    +0.000 C 
ATOM     15  H   UNL     1      14.102  12.052   2.978  0.00  0.00    +0.000 HD
ATOM     16  H   UNL     1      14.408  11.598   1.300  0.00  0.00    +0.000 HD
ATOM     17  H   UNL     1      13.547  10.479   2.369  0.00  0.00    +0.000 HD
ENDBRANCH   5  14
BRANCH   2  18
ATOM     18  C   UNL     1      18.259   9.611   3.877  0.00  0.00    +0.000 C 
ATOM     19  H   UNL     1      18.247  10.556   3.321  0.00  0.00    +0.000 HD
BRANCH  18  20
ATOM     20  C   UNL     1      18.690   9.946   5.306  0.00  0.00    +0.000 C 
ATOM     21  H   UNL     1      19.776   9.999   5.445  0.00  0.00    +0.000 HD
ATOM     22  H   UNL     1      18.328  10.954   5.553  0.00  0.00    +0.000 HD
ATOM     23  H   UNL     1      18.210   9.309   6.058  0.00  0.00    +0.000 HD
ENDBRANCH  18  20
BRANCH  18  24
ATOM     24  C   UNL     1      19.312   8.731   3.199  0.00  0.00    +0.000 C 
ATOM     25  H   UNL     1      20.287   9.229   3.158  0.00  0.00    +0.000 HD
ATOM     26  H   UNL     1      19.018   8.494   2.169  0.00  0.00    +0.000 HD
ATOM     27  H   UNL     1      19.437   7.766   3.697  0.00  0.00    +0.000 HD
ENDBRANCH  18  24
ENDBRANCH   2  18
TORSDOF 4
ENDMDL
MODEL 4
REMARK VINA RESULT:    -4.456     28.915     29.911
REMARK INTER + INTRA:          -5.212
REMARK INTER:                  -5.072
REMARK INTRA:                  -0.140
REMARK UNBOUND:                -0.105
REMARK  Name = 249286
REMARK  4 active torsions:
REMARK  status: ('A' for Active; 'I' for Inactive)
REMARK    1  A    between atoms: C_2  and  C_7
REMARK    2  A    between atoms: C_5  and  C_9
REMARK    3  A    between atoms: C_7  and  C_10
REMARK    4  A    between atoms: C_7  and  C_11
REMARK                            x       y       z     vdW  Elec       q    Type
REMARK                         _______ _______ _______ _____ _____    ______ ____
ROOT
ATOM      1  O   UNL     1      -3.173  -5.987 -12.081  0.00  0.00    +0.000 OA
ATOM      2  C   UNL     1      -3.889  -7.863  -9.221  0.00  0.00    +0.000 C 
ATOM      3  C   UNL     1      -3.208  -8.906 -10.178  0.00  0.00    +0.000 C 
ATOM      4  C   UNL     1      -3.705  -9.289  -8.839  0.00  0.00    +0.000 C 
ATOM      5  C   UNL     1      -3.643  -8.336 -11.497  0.00  0.00    +0.000 C 
ATOM      6  C   UNL     1      -3.204  -6.632  -9.718  0.00  0.00    +0.000 C 
ATOM      7  C   UNL     1      -3.321  -6.851 -11.232  0.00  0.00    +0.000 C 
ATOM      8  H   UNL     1      -2.118  -8.991 -10.199  0.00  0.00    +0.000 HD
ATOM      9  H   UNL     1      -2.961  -9.471  -8.061  0.00  0.00    +0.000 HD
ATOM     10  H   UNL     1      -4.330 -10.169  -8.906  0.00  0.00    +0.000 HD
ATOM     11  H   UNL     1      -4.713  -8.472 -11.680  0.00  0.00    +0.000 HD
ATOM     12  H   UNL     1      -2.143  -6.628  -9.441  0.00  0.00    +0.000 HD
ATOM     13  H   UNL     1      -3.628  -5.666  -9.452  0.00  0.00    +0.000 HD
ENDROOT
BRANCH   5  14
ATOM     14  C   UNL     1      -2.852  -8.884 -12.669  0.00  0.00    +0.000 C 
ATOM     15  H   UNL     1      -1.880  -8.384 -12.747  0.00  0.00    +0.000 HD
ATOM     16  H   UNL     1      -2.658  -9.957 -12.562  0.00  0.00    +0.000 HD
ATOM     17  H   UNL     1      -3.394  -8.733 -13.608  0.00  0.00    +0.000 HD
ENDBRANCH   5  14
BRANCH   2  18
ATOM     18  C   UNL     1      -5.382  -7.599  -9.188  0.00  0.00    +0.000 C 
ATOM     19  H   UNL     1      -5.836  -7.710 -10.180  0.00  0.00    +0.000 HD
BRANCH  18  20
ATOM     20  C   UNL     1      -6.093  -8.592  -8.265  0.00  0.00    +0.000 C 
ATOM     21  H   UNL     1      -6.224  -8.233  -7.238  0.00  0.00    +0.000 HD
ATOM     22  H   UNL     1      -7.114  -8.747  -8.639  0.00  0.00    +0.000 HD
ATOM     23  H   UNL     1      -5.653  -9.596  -8.297  0.00  0.00    +0.000 HD
ENDBRANCH  18  20
BRANCH  18  24
ATOM     24  C   UNL     1      -5.673  -6.164  -8.744  0.00  0.00    +0.000 C 
ATOM     25  H   UNL     1      -6.446  -5.699  -9.365  0.00  0.00    +0.000 HD
ATOM     26  H   UNL     1      -4.772  -5.543  -8.816  0.00  0.00    +0.000 HD
ATOM     27  H   UNL     1      -5.986  -6.102  -7.698  0.00  0.00    +0.000 HD
ENDBRANCH  18  24
ENDBRANCH   2  18
TORSDOF 4
ENDMDL
MODEL 5
REMARK VINA RESULT:    -4.263      2.170      4.169
REMARK INTER + INTRA:          -4.992
REMARK INTER:                  -4.861
REMARK INTRA:                  -0.131
REMARK UNBOUND:                -0.105
REMARK  Name = 249286
REMARK  4 active torsions:
REMARK  status: ('A' for Active; 'I' for Inactive)
REMARK    1  A    between atoms: C_2  and  C_7
REMARK    2  A    between atoms: C_5  and  C_9
REMARK    3  A    between atoms: C_7  and  C_10
REMARK    4  A    between atoms: C_7  and  C_11
REMARK                            x       y       z     vdW  Elec       q    Type
REMARK                         _______ _______ _______ _____ _____    ______ ____
ROOT
ATOM      1  O   UNL     1      14.616  11.603   2.484  0.00  0.00    +0.000 OA
ATOM      2  C   UNL     1      16.821   8.994   1.743  0.00  0.00    +0.000 C 
ATOM      3  C   UNL     1      16.394   8.699   3.225  0.00  0.00    +0.000 C 
ATOM      4  C   UNL     1      17.361   7.839   2.509  0.00  0.00    +0.000 C 
ATOM      5  C   UNL     1      16.162  10.107   3.690  0.00  0.00    +0.000 C 
ATOM      6  C   UNL     1      15.577   9.690   1.293  0.00  0.00    +0.000 C 
ATOM      7  C   UNL     1      15.343  10.622   2.489  0.00  0.00    +0.000 C 
ATOM      8  H   UNL     1      15.481   8.132   3.423  0.00  0.00    +0.000 HD
ATOM      9  H   UNL     1      17.012   6.858   2.181  0.00  0.00    +0.000 HD
ATOM     10  H   UNL     1      18.247   7.687   3.109  0.00  0.00    +0.000 HD
ATOM     11  H   UNL     1      17.092  10.674   3.793  0.00  0.00    +0.000 HD
ATOM     12  H   UNL     1      14.736   8.991   1.218  0.00  0.00    +0.000 HD
ATOM     13  H   UNL     1      15.619  10.272   0.375  0.00  0.00    +0.000 HD
ENDROOT
BRANCH   5  14
ATOM     14  C   UNL     1      15.374  10.182   4.984  0.00  0.00    +0.000 C 
ATOM     15  H   UNL     1      14.299  10.229   4.780  0.00  0.00    +0.000 HD
ATOM     16  H   UNL     1      15.548   9.305   5.616  0.00  0.00    +0.000 HD
ATOM     17  H   UNL     1      15.655  11.071   5.558  0.00  0.00    +0.000 HD
ENDBRANCH   5  14
BRANCH   2  18
ATOM     18  C   UNL     1      18.013   9.853   1.364  0.00  0.00    +0.000 C 
ATOM     19  H   UNL     1      18.194  10.644   2.101  0.00  0.00    +0.000 HD
BRANCH  18  20
ATOM     20  C   UNL     1      19.291   9.014   1.295  0.00  0.00    +0.000 C 
ATOM     21  H   UNL     1      20.207   9.604   1.176  0.00  0.00    +0.000 HD
ATOM     22  H   UNL     1      19.418   8.492   2.254  0.00  0.00    +0.000 HD
ATOM     23  H   UNL     1      19.228   8.198   0.566  0.00  0.00    +0.000 HD
ENDBRANCH  18  20
BRANCH  18  24
ATOM     24  C   UNL     1      17.772  10.561   0.029  0.00  0.00    +0.000 C 
ATOM     25  H   UNL     1      17.042  11.372   0.129  0.00  0.00    +0.000 HD
ATOM     26  H   UNL     1      17.387   9.860  -0.721  0.00  0.00    +0.000 HD
ATOM     27  H   UNL     1      18.690  10.973  -0.400  0.00  0.00    +0.000 HD
ENDBRANCH  18  24
ENDBRANCH   2  18
TORSDOF 4
ENDMDL
MODEL 6
REMARK VINA RESULT:    -4.247     41.169     42.890
REMARK INTER + INTRA:          -4.973
REMARK INTER:                  -4.875
REMARK INTRA:                  -0.098
REMARK UNBOUND:                -0.105
REMARK  Name = 249286
REMARK  4 active torsions:
REMARK  status: ('A' for Active; 'I' for Inactive)
REMARK    1  A    between atoms: C_2  and  C_7
REMARK    2  A    between atoms: C_5  and  C_9
REMARK    3  A    between atoms: C_7  and  C_10
REMARK    4  A    between atoms: C_7  and  C_11
REMARK                            x       y       z     vdW  Elec       q    Type
REMARK                         _______ _______ _______ _____ _____    ______ ____
ROOT
ATOM      1  O   UNL     1     -27.675  10.224   5.402  0.00  0.00    +0.000 OA
ATOM      2  C   UNL     1     -24.391  11.345   4.981  0.00  0.00    +0.000 C 
ATOM      3  C   UNL     1     -25.194  12.668   5.250  0.00  0.00    +0.000 C 
ATOM      4  C   UNL     1     -23.739  12.683   4.986  0.00  0.00    +0.000 C 
ATOM      5  C   UNL     1     -26.513  12.269   4.657  0.00  0.00    +0.000 C 
ATOM      6  C   UNL     1     -25.256  10.404   5.754  0.00  0.00    +0.000 C 
ATOM      7  C   UNL     1     -26.643  10.866   5.284  0.00  0.00    +0.000 C 
ATOM      8  H   UNL     1     -25.379  12.989   6.279  0.00  0.00    +0.000 HD
ATOM      9  H   UNL     1     -23.078  12.876   5.833  0.00  0.00    +0.000 HD
ATOM     10  H   UNL     1     -23.503  13.403   4.215  0.00  0.00    +0.000 HD
ATOM     11  H   UNL     1     -26.478  12.201   3.565  0.00  0.00    +0.000 HD
ATOM     12  H   UNL     1     -25.171  10.579   6.832  0.00  0.00    +0.000 HD
ATOM     13  H   UNL     1     -25.144   9.337   5.573  0.00  0.00    +0.000 HD
ENDROOT
BRANCH   5  14
ATOM     14  C   UNL     1     -27.651  13.180   5.074  0.00  0.00    +0.000 C 
ATOM     15  H   UNL     1     -27.266  14.074   5.576  0.00  0.00    +0.000 HD
ATOM     16  H   UNL     1     -28.239  13.517   4.213  0.00  0.00    +0.000 HD
ATOM     17  H   UNL     1     -28.330  12.664   5.761  0.00  0.00    +0.000 HD
ENDBRANCH   5  14
BRANCH   2  18
ATOM     18  C   UNL     1     -24.165  10.763   3.599  0.00  0.00    +0.000 C 
ATOM     19  H   UNL     1     -25.105  10.662   3.043  0.00  0.00    +0.000 HD
BRANCH  18  20
ATOM     20  C   UNL     1     -23.254  11.667   2.767  0.00  0.00    +0.000 C 
ATOM     21  H   UNL     1     -23.548  11.750   1.714  0.00  0.00    +0.000 HD
ATOM     22  H   UNL     1     -23.328  12.692   3.158  0.00  0.00    +0.000 HD
ATOM     23  H   UNL     1     -22.191  11.425   2.879  0.00  0.00    +0.000 HD
ENDBRANCH  18  20
BRANCH  18  24
ATOM     24  C   UNL     1     -23.572   9.355   3.691  0.00  0.00    +0.000 C 
ATOM     25  H   UNL     1     -24.132   8.726   4.392  0.00  0.00    +0.000 HD
ATOM     26  H   UNL     1     -22.532   9.392   4.038  0.00  0.00    +0.000 HD
ATOM     27  H   UNL     1     -23.538   8.849   2.722  0.00  0.00    +0.000 HD
ENDBRANCH  18  24
ENDBRANCH   2  18
TORSDOF 4
ENDMDL
MODEL 7
REMARK VINA RESULT:    -4.218      1.792      4.133
REMARK INTER + INTRA:          -4.940
REMARK INTER:                  -4.827
REMARK INTRA:                  -0.114
REMARK UNBOUND:                -0.105
REMARK  Name = 249286
REMARK  4 active torsions:
REMARK  status: ('A' for Active; 'I' for Inactive)
REMARK    1  A    between atoms: C_2  and  C_7
REMARK    2  A    between atoms: C_5  and  C_9
REMARK    3  A    between atoms: C_7  and  C_10
REMARK    4  A    between atoms: C_7  and  C_11
REMARK                            x       y       z     vdW  Elec       q    Type
REMARK                         _______ _______ _______ _____ _____    ______ ____
ROOT
ATOM      1  O   UNL     1      17.282   7.575   2.708  0.00  0.00    +0.000 OA
ATOM      2  C   UNL     1      19.595   9.279   0.718  0.00  0.00    +0.000 C 
ATOM      3  C   UNL     1      18.303  10.166   0.613  0.00  0.00    +0.000 C 
ATOM      4  C   UNL     1      19.544  10.512  -0.113  0.00  0.00    +0.000 C 
ATOM      5  C   UNL     1      17.265   9.093   0.764  0.00  0.00    +0.000 C 
ATOM      6  C   UNL     1      19.360   8.711   2.080  0.00  0.00    +0.000 C 
ATOM      7  C   UNL     1      17.876   8.337   1.963  0.00  0.00    +0.000 C 
ATOM      8  H   UNL     1      18.105  10.925   1.375  0.00  0.00    +0.000 HD
ATOM      9  H   UNL     1      20.128  11.353   0.265  0.00  0.00    +0.000 HD
ATOM     10  H   UNL     1      19.330  10.704  -1.155  0.00  0.00    +0.000 HD
ATOM     11  H   UNL     1      17.207   8.440  -0.112  0.00  0.00    +0.000 HD
ATOM     12  H   UNL     1      19.473   9.477   2.855  0.00  0.00    +0.000 HD
ATOM     13  H   UNL     1      19.936   7.838   2.378  0.00  0.00    +0.000 HD
ENDROOT
BRANCH   5  14
ATOM     14  C   UNL     1      15.888   9.640   1.085  0.00  0.00    +0.000 C 
ATOM     15  H   UNL     1      15.108   8.983   0.687  0.00  0.00    +0.000 HD
ATOM     16  H   UNL     1      15.725   9.722   2.166  0.00  0.00    +0.000 HD
ATOM     17  H   UNL     1      15.756  10.636   0.649  0.00  0.00    +0.000 HD
ENDBRANCH   5  14
BRANCH   2  18
ATOM     18  C   UNL     1      19.911   8.136  -0.229  0.00  0.00    +0.000 C 
ATOM     19  H   UNL     1      19.000   7.692  -0.647  0.00  0.00    +0.000 HD
BRANCH  18  20
ATOM     20  C   UNL     1      20.748   8.623  -1.414  0.00  0.00    +0.000 C 
ATOM     21  H   UNL     1      20.764   9.713  -1.532  0.00  0.00    +0.000 HD
ATOM     22  H   UNL     1      21.797   8.347  -1.238  0.00  0.00    +0.000 HD
ATOM     23  H   UNL     1      20.501   8.112  -2.351  0.00  0.00    +0.000 HD
ENDBRANCH  18  20
BRANCH  18  24
ATOM     24  C   UNL     1      20.639   7.006   0.504  0.00  0.00    +0.000 C 
ATOM     25  H   UNL     1      21.600   7.341   0.907  0.00  0.00    +0.000 HD
ATOM     26  H   UNL     1      20.838   6.167  -0.174  0.00  0.00    +0.000 HD
ATOM     27  H   UNL     1      20.047   6.586   1.322  0.00  0.00    +0.000 HD
ENDBRANCH  18  24
ENDBRANCH   2  18
TORSDOF 4
ENDMDL
MODEL 8
REMARK VINA RESULT:    -4.112     11.743     13.541
REMARK INTER + INTRA:          -4.818
REMARK INTER:                  -4.673
REMARK INTRA:                  -0.145
REMARK UNBOUND:                -0.105
REMARK  Name = 249286
REMARK  4 active torsions:
REMARK  status: ('A' for Active; 'I' for Inactive)
REMARK    1  A    between atoms: C_2  and  C_7
REMARK    2  A    between atoms: C_5  and  C_9
REMARK    3  A    between atoms: C_7  and  C_10
REMARK    4  A    between atoms: C_7  and  C_11
REMARK                            x       y       z     vdW  Elec       q    Type
REMARK                         _______ _______ _______ _____ _____    ______ ____
ROOT
ATOM      1  O   UNL     1       6.582  13.910  -3.928  0.00  0.00    +0.000 OA
ATOM      2  C   UNL     1       8.266  13.100  -6.881  0.00  0.00    +0.000 C 
ATOM      3  C   UNL     1       9.055  12.301  -5.782  0.00  0.00    +0.000 C 
ATOM      4  C   UNL     1       9.454  12.265  -7.206  0.00  0.00    +0.000 C 
ATOM      5  C   UNL     1       8.848  13.228  -4.621  0.00  0.00    +0.000 C 
ATOM      6  C   UNL     1       6.926  13.115  -6.220  0.00  0.00    +0.000 C 
ATOM      7  C   UNL     1       7.337  13.488  -4.789  0.00  0.00    +0.000 C 
ATOM      8  H   UNL     1       8.706  11.309  -5.479  0.00  0.00    +0.000 HD
ATOM      9  H   UNL     1       9.244  11.351  -7.763  0.00  0.00    +0.000 HD
ATOM     10  H   UNL     1      10.510  12.474  -7.306  0.00  0.00    +0.000 HD
ATOM     11  H   UNL     1       9.413  14.160  -4.723  0.00  0.00    +0.000 HD
ATOM     12  H   UNL     1       6.476  12.116  -6.210  0.00  0.00    +0.000 HD
ATOM     13  H   UNL     1       6.182  13.820  -6.584  0.00  0.00    +0.000 HD
ENDROOT
BRANCH   5  14
ATOM     14  C   UNL     1       9.165  12.584  -3.285  0.00  0.00    +0.000 C 
ATOM     15  H   UNL     1       9.718  13.278  -2.642  0.00  0.00    +0.000 HD
ATOM     16  H   UNL     1       8.255  12.296  -2.747  0.00  0.00    +0.000 HD
ATOM     17  H   UNL     1       9.772  11.683  -3.422  0.00  0.00    +0.000 HD
ENDBRANCH   5  14
BRANCH   2  18
ATOM     18  C   UNL     1       8.609  14.516  -7.301  0.00  0.00    +0.000 C 
ATOM     19  H   UNL     1       8.893  15.136  -6.442  0.00  0.00    +0.000 HD
BRANCH  18  20
ATOM     20  C   UNL     1       9.797  14.528  -8.265  0.00  0.00    +0.000 C 
ATOM     21  H   UNL     1      10.332  13.574  -8.327  0.00  0.00    +0.000 HD
ATOM     22  H   UNL     1       9.419  14.702  -9.283  0.00  0.00    +0.000 HD
ATOM     23  H   UNL     1      10.476  15.372  -8.097  0.00  0.00    +0.000 HD
ENDBRANCH  18  20
BRANCH  18  24
ATOM     24  C   UNL     1       7.400  15.203  -7.942  0.00  0.00    +0.000 C 
ATOM     25  H   UNL     1       7.089  16.085  -7.371  0.00  0.00    +0.000 HD
ATOM     26  H   UNL     1       6.543  14.520  -7.989  0.00  0.00    +0.000 HD
ATOM     27  H   UNL     1       7.588  15.507  -8.975  0.00  0.00    +0.000 HD
ENDBRANCH  18  24
ENDBRANCH   2  18
TORSDOF 4
ENDMDL
MODEL 9
REMARK VINA RESULT:    -4.079      2.410      3.859
REMARK INTER + INTRA:          -4.780
REMARK INTER:                  -4.675
REMARK INTRA:                  -0.105
REMARK UNBOUND:                -0.105
REMARK  Name = 249286
REMARK  4 active torsions:
REMARK  status: ('A' for Active; 'I' for Inactive)
REMARK    1  A    between atoms: C_2  and  C_7
REMARK    2  A    between atoms: C_5  and  C_9
REMARK    3  A    between atoms: C_7  and  C_10
REMARK    4  A    between atoms: C_7  and  C_11
REMARK                            x       y       z     vdW  Elec       q    Type
REMARK                         _______ _______ _______ _____ _____    ______ ____
ROOT
ATOM      1  O   UNL     1      16.165  12.789   3.243  0.00  0.00    +0.000 OA
ATOM      2  C   UNL     1      17.142   9.758   1.803  0.00  0.00    +0.000 C 
ATOM      3  C   UNL     1      15.664   9.938   1.303  0.00  0.00    +0.000 C 
ATOM      4  C   UNL     1      16.466   8.748   0.944  0.00  0.00    +0.000 C 
ATOM      5  C   UNL     1      15.109  10.698   2.472  0.00  0.00    +0.000 C 
ATOM      6  C   UNL     1      17.502  11.201   1.941  0.00  0.00    +0.000 C 
ATOM      7  C   UNL     1      16.246  11.726   2.649  0.00  0.00    +0.000 C 
ATOM      8  H   UNL     1      15.465  10.526   0.403  0.00  0.00    +0.000 HD
ATOM      9  H   UNL     1      16.837   8.684  -0.080  0.00  0.00    +0.000 HD
ATOM     10  H   UNL     1      15.911   7.843   1.148  0.00  0.00    +0.000 HD
ATOM     11  H   UNL     1      15.009  10.076   3.367  0.00  0.00    +0.000 HD
ATOM     12  H   UNL     1      17.586  11.685   0.961  0.00  0.00    +0.000 HD
ATOM     13  H   UNL     1      18.386  11.456   2.523  0.00  0.00    +0.000 HD
ENDROOT
BRANCH   5  14
ATOM     14  C   UNL     1      13.784  11.369   2.167  0.00  0.00    +0.000 C 
ATOM     15  H   UNL     1      13.019  11.061   2.889  0.00  0.00    +0.000 HD
ATOM     16  H   UNL     1      13.861  12.461   2.219  0.00  0.00    +0.000 HD
ATOM     17  H   UNL     1      13.437  11.104   1.163  0.00  0.00    +0.000 HD
ENDBRANCH   5  14
BRANCH   2  18
ATOM     18  C   UNL     1      17.516   9.046   3.089  0.00  0.00    +0.000 C 
ATOM     19  H   UNL     1      16.940   9.423   3.943  0.00  0.00    +0.000 HD
BRANCH  18  20
ATOM     20  C   UNL     1      17.225   7.547   2.989  0.00  0.00    +0.000 C 
ATOM     21  H   UNL     1      17.568   6.967   3.853  0.00  0.00    +0.000 HD
ATOM     22  H   UNL     1      16.135   7.403   2.971  0.00  0.00    +0.000 HD
ATOM     23  H   UNL     1      17.557   7.109   2.041  0.00  0.00    +0.000 HD
ENDBRANCH  18  20
BRANCH  18  24
ATOM     24  C   UNL     1      18.989   9.277   3.432  0.00  0.00    +0.000 C 
ATOM     25  H   UNL     1      19.523   8.331   3.574  0.00  0.00    +0.000 HD
ATOM     26  H   UNL     1      19.088   9.855   4.359  0.00  0.00    +0.000 HD
ATOM     27  H   UNL     1      19.513   9.859   2.669  0.00  0.00    +0.000 HD
ENDBRANCH  18  24
ENDBRANCH   2  18
TORSDOF 4
ENDMDL
MODEL 10
REMARK VINA RESULT:    -4.038     11.213     12.410
REMARK INTER + INTRA:          -4.733
REMARK INTER:                  -4.592
REMARK INTRA:                  -0.141
REMARK UNBOUND:                -0.105
REMARK  Name = 249286
REMARK  4 active torsions:
REMARK  status: ('A' for Active; 'I' for Inactive)
REMARK    1  A    between atoms: C_2  and  C_7
REMARK    2  A    between atoms: C_5  and  C_9
REMARK    3  A    between atoms: C_7  and  C_10
REMARK    4  A    between atoms: C_7  and  C_11
REMARK                            x       y       z     vdW  Elec       q    Type
REMARK                         _______ _______ _______ _____ _____    ______ ____
ROOT
ATOM      1  O   UNL     1       8.017  14.952   0.255  0.00  0.00    +0.000 OA
ATOM      2  C   UNL     1       5.724  13.038   2.070  0.00  0.00    +0.000 C 
ATOM      3  C   UNL     1       6.278  12.026   1.004  0.00  0.00    +0.000 C 
ATOM      4  C   UNL     1       5.242  11.633   1.983  0.00  0.00    +0.000 C 
ATOM      5  C   UNL     1       6.568  12.989  -0.109  0.00  0.00    +0.000 C 
ATOM      6  C   UNL     1       6.931  13.911   2.189  0.00  0.00    +0.000 C 
ATOM      7  C   UNL     1       7.283  14.087   0.705  0.00  0.00    +0.000 C 
ATOM      8  H   UNL     1       7.199  11.473   1.210  0.00  0.00    +0.000 HD
ATOM      9  H   UNL     1       5.548  10.983   2.804  0.00  0.00    +0.000 HD
ATOM     10  H   UNL     1       4.411  11.157   1.482  0.00  0.00    +0.000 HD
ATOM     11  H   UNL     1       5.657  13.383  -0.570  0.00  0.00    +0.000 HD
ATOM     12  H   UNL     1       7.753  13.387   2.688  0.00  0.00    +0.000 HD
ATOM     13  H   UNL     1       6.815  14.886   2.657  0.00  0.00    +0.000 HD
ENDROOT
BRANCH   5  14
ATOM     14  C   UNL     1       7.470  12.404  -1.180  0.00  0.00    +0.000 C 
ATOM     15  H   UNL     1       6.904  11.738  -1.840  0.00  0.00    +0.000 HD
ATOM     16  H   UNL     1       7.914  13.185  -1.807  0.00  0.00    +0.000 HD
ATOM     17  H   UNL     1       8.286  11.831  -0.728  0.00  0.00    +0.000 HD
ENDBRANCH   5  14
BRANCH   2  18
ATOM     18  C   UNL     1       4.514  13.922   1.842  0.00  0.00    +0.000 C 
ATOM     19  H   UNL     1       4.516  14.362   0.838  0.00  0.00    +0.000 HD
BRANCH  18  20
ATOM     20  C   UNL     1       3.218  13.119   1.969  0.00  0.00    +0.000 C 
ATOM     21  H   UNL     1       2.955  12.853   2.999  0.00  0.00    +0.000 HD
ATOM     22  H   UNL     1       2.384  13.745   1.621  0.00  0.00    +0.000 HD
ATOM     23  H   UNL     1       3.185  12.252   1.299  0.00  0.00    +0.000 HD
ENDBRANCH  18  20
BRANCH  18  24
ATOM     24  C   UNL     1       4.505  15.098   2.822  0.00  0.00    +0.000 C 
ATOM     25  H   UNL     1       5.504  15.291   3.229  0.00  0.00    +0.000 HD
ATOM     26  H   UNL     1       3.837  14.896   3.668  0.00  0.00    +0.000 HD
ATOM     27  H   UNL     1       4.131  16.021   2.369  0.00  0.00    +0.000 HD
ENDBRANCH  18  24
ENDBRANCH   2  18
TORSDOF 4
ENDMDL
