MODEL 1
REMARK VINA RESULT:    -5.294      0.000      0.000
REMARK INTER + INTRA:          -6.670
REMARK INTER:                  -6.439
REMARK INTRA:                  -0.231
REMARK UNBOUND:                -0.138
REMARK  Name = 638014
REMARK  6 active torsions:
REMARK  status: ('A' for Active; 'I' for Inactive)
REMARK    1  A    between atoms: C_2  and  C_8
REMARK    2  A    between atoms: C_2  and  C_9
REMARK    3  A    between atoms: C_5  and  C_10
REMARK    4  A    between atoms: C_7  and  C_11
REMARK    5  A    between atoms: C_12  and  C_13
REMARK    6  A    between atoms: C_13  and  C_14
REMARK                            x       y       z     vdW  Elec       q    Type
REMARK                         _______ _______ _______ _____ _____    ______ ____
ROOT
ATOM      1  C   UNL     1       2.831  -7.062  17.010  0.00  0.00    +0.000 C 
ATOM      2  C   UNL     1       2.404  -8.416  17.643  0.00  0.00    +0.000 C 
ATOM      3  C   UNL     1       1.225  -9.042  16.919  0.00  0.00    +0.000 C 
ATOM      4  C   UNL     1       1.607  -6.174  16.689  0.00  0.00    +0.000 C 
ATOM      5  C   UNL     1       0.024  -8.112  16.978  0.00  0.00    +0.000 C 
ATOM      6  C   UNL     1       0.338  -6.656  16.704  0.00  0.00    +0.000 C 
ATOM      7  H   UNL     1       2.127  -8.266  18.696  0.00  0.00    +0.000 HD
ATOM      8  H   UNL     1       3.246  -9.120  17.645  0.00  0.00    +0.000 HD
ATOM      9  H   UNL     1       0.970 -10.002  17.381  0.00  0.00    +0.000 HD
ATOM     10  H   UNL     1       1.485  -9.258  15.876  0.00  0.00    +0.000 HD
ATOM     11  H   UNL     1      -0.437  -8.182  17.972  0.00  0.00    +0.000 HD
ATOM     12  H   UNL     1      -0.720  -8.472  16.256  0.00  0.00    +0.000 HD
ENDROOT
BRANCH   1  13
ATOM     13  C   UNL     1       3.622  -7.342  15.711  0.00  0.00    +0.000 C 
ATOM     14  H   UNL     1       3.514  -8.382  15.383  0.00  0.00    +0.000 HD
ATOM     15  H   UNL     1       3.279  -6.704  14.888  0.00  0.00    +0.000 HD
ATOM     16  H   UNL     1       4.691  -7.144  15.849  0.00  0.00    +0.000 HD
ENDBRANCH   1  13
BRANCH   1  17
ATOM     17  C   UNL     1       3.783  -6.395  18.032  0.00  0.00    +0.000 C 
ATOM     18  H   UNL     1       3.443  -5.380  18.278  0.00  0.00    +0.000 HD
ATOM     19  H   UNL     1       3.828  -6.944  18.979  0.00  0.00    +0.000 HD
ATOM     20  H   UNL     1       4.802  -6.315  17.636  0.00  0.00    +0.000 HD
ENDBRANCH   1  17
BRANCH   4  21
ATOM     21  C   UNL     1       1.904  -4.793  16.344  0.00  0.00    +0.000 C 
ATOM     22  C   UNL     1       1.907  -4.358  15.088  0.00  0.00    +0.000 C 
ATOM     23  H   UNL     1       2.093  -4.106  17.162  0.00  0.00    +0.000 HD
ATOM     24  H   UNL     1       1.761  -5.001  14.229  0.00  0.00    +0.000 HD
BRANCH  22  26
ATOM     25  O   UNL     1       1.340  -2.092  14.617  0.00  0.00    +0.000 OA
ATOM     26  C   UNL     1       2.220  -2.930  14.800  0.00  0.00    +0.000 C 
BRANCH  26  27
ATOM     27  C   UNL     1       3.677  -2.555  14.724  0.00  0.00    +0.000 C 
ATOM     28  H   UNL     1       4.284  -3.427  14.983  0.00  0.00    +0.000 HD
ATOM     29  H   UNL     1       3.957  -2.239  13.716  0.00  0.00    +0.000 HD
ATOM     30  H   UNL     1       3.876  -1.740  15.424  0.00  0.00    +0.000 HD
ENDBRANCH  26  27
ENDBRANCH  22  26
ENDBRANCH   4  21
BRANCH   6  31
ATOM     31  C   UNL     1      -0.916  -5.849  16.455  0.00  0.00    +0.000 C 
ATOM     32  H   UNL     1      -1.651  -6.438  15.899  0.00  0.00    +0.000 HD
ATOM     33  H   UNL     1      -0.732  -4.900  15.944  0.00  0.00    +0.000 HD
ATOM     34  H   UNL     1      -1.373  -5.569  17.412  0.00  0.00    +0.000 HD
ENDBRANCH   6  31
TORSDOF 6
ENDMDL
MODEL 2
REMARK VINA RESULT:    -5.044      2.855      5.525
REMARK INTER + INTRA:          -6.361
REMARK INTER:                  -6.147
REMARK INTRA:                  -0.215
REMARK UNBOUND:                -0.138
REMARK  Name = 638014
REMARK  6 active torsions:
REMARK  status: ('A' for Active; 'I' for Inactive)
REMARK    1  A    between atoms: C_2  and  C_8
REMARK    2  A    between atoms: C_2  and  C_9
REMARK    3  A    between atoms: C_5  and  C_10
REMARK    4  A    between atoms: C_7  and  C_11
REMARK    5  A    between atoms: C_12  and  C_13
REMARK    6  A    between atoms: C_13  and  C_14
REMARK                            x       y       z     vdW  Elec       q    Type
REMARK                         _______ _______ _______ _____ _____    ______ ____
ROOT
ATOM      1  C   UNL     1       0.570  -5.953  16.054  0.00  0.00    +0.000 C 
ATOM      2  C   UNL     1       0.888  -4.471  15.711  0.00  0.00    +0.000 C 
ATOM      3  C   UNL     1       2.368  -4.241  15.471  0.00  0.00    +0.000 C 
ATOM      4  C   UNL     1       1.580  -6.531  17.072  0.00  0.00    +0.000 C 
ATOM      5  C   UNL     1       3.161  -4.602  16.717  0.00  0.00    +0.000 C 
ATOM      6  C   UNL     1       2.739  -5.895  17.383  0.00  0.00    +0.000 C 
ATOM      7  H   UNL     1       0.563  -3.819  16.535  0.00  0.00    +0.000 HD
ATOM      8  H   UNL     1       0.321  -4.152  14.827  0.00  0.00    +0.000 HD
ATOM      9  H   UNL     1       2.548  -3.191  15.212  0.00  0.00    +0.000 HD
ATOM     10  H   UNL     1       2.716  -4.835  14.617  0.00  0.00    +0.000 HD
ATOM     11  H   UNL     1       3.066  -3.792  17.451  0.00  0.00    +0.000 HD
ATOM     12  H   UNL     1       4.222  -4.658  16.441  0.00  0.00    +0.000 HD
ENDROOT
BRANCH   1  13
ATOM     13  C   UNL     1       0.611  -6.789  14.753  0.00  0.00    +0.000 C 
ATOM     14  H   UNL     1       1.627  -7.124  14.516  0.00  0.00    +0.000 HD
ATOM     15  H   UNL     1      -0.017  -7.684  14.832  0.00  0.00    +0.000 HD
ATOM     16  H   UNL     1       0.242  -6.210  13.899  0.00  0.00    +0.000 HD
ENDBRANCH   1  13
BRANCH   1  17
ATOM     17  C   UNL     1      -0.878  -5.964  16.600  0.00  0.00    +0.000 C 
ATOM     18  H   UNL     1      -1.376  -6.915  16.369  0.00  0.00    +0.000 HD
ATOM     19  H   UNL     1      -0.913  -5.854  17.689  0.00  0.00    +0.000 HD
ATOM     20  H   UNL     1      -1.479  -5.161  16.156  0.00  0.00    +0.000 HD
ENDBRANCH   1  17
BRANCH   4  21
ATOM     21  C   UNL     1       1.222  -7.813  17.656  0.00  0.00    +0.000 C 
ATOM     22  C   UNL     1       1.537  -8.970  17.081  0.00  0.00    +0.000 C 
ATOM     23  H   UNL     1       0.711  -7.798  18.612  0.00  0.00    +0.000 HD
ATOM     24  H   UNL     1       2.015  -9.049  16.113  0.00  0.00    +0.000 HD
BRANCH  22  26
ATOM     25  O   UNL     1       1.969 -11.027  18.203  0.00  0.00    +0.000 OA
ATOM     26  C   UNL     1       1.141 -10.251  17.730  0.00  0.00    +0.000 C 
BRANCH  26  27
ATOM     27  C   UNL     1      -0.331 -10.567  17.769  0.00  0.00    +0.000 C 
ATOM     28  H   UNL     1      -0.764 -10.375  16.784  0.00  0.00    +0.000 HD
ATOM     29  H   UNL     1      -0.508 -11.617  18.015  0.00  0.00    +0.000 HD
ATOM     30  H   UNL     1      -0.815  -9.937  18.519  0.00  0.00    +0.000 HD
ENDBRANCH  26  27
ENDBRANCH  22  26
ENDBRANCH   4  21
BRANCH   6  31
ATOM     31  C   UNL     1       3.755  -6.360  18.401  0.00  0.00    +0.000 C 
ATOM     32  H   UNL     1       3.339  -6.313  19.412  0.00  0.00    +0.000 HD
ATOM     33  H   UNL     1       4.700  -5.811  18.359  0.00  0.00    +0.000 HD
ATOM     34  H   UNL     1       4.027  -7.404  18.204  0.00  0.00    +0.000 HD
ENDBRANCH   6  31
TORSDOF 6
ENDMDL
MODEL 3
REMARK VINA RESULT:    -5.031      2.569      3.453
REMARK INTER + INTRA:          -6.345
REMARK INTER:                  -6.130
REMARK INTRA:                  -0.215
REMARK UNBOUND:                -0.138
REMARK  Name = 638014
REMARK  6 active torsions:
REMARK  status: ('A' for Active; 'I' for Inactive)
REMARK    1  A    between atoms: C_2  and  C_8
REMARK    2  A    between atoms: C_2  and  C_9
REMARK    3  A    between atoms: C_5  and  C_10
REMARK    4  A    between atoms: C_7  and  C_11
REMARK    5  A    between atoms: C_12  and  C_13
REMARK    6  A    between atoms: C_13  and  C_14
REMARK                            x       y       z     vdW  Elec       q    Type
REMARK                         _______ _______ _______ _____ _____    ______ ____
ROOT
ATOM      1  C   UNL     1       1.927  -7.042  17.104  0.00  0.00    +0.000 C 
ATOM      2  C   UNL     1       0.414  -6.883  17.423  0.00  0.00    +0.000 C 
ATOM      3  C   UNL     1      -0.346  -6.222  16.288  0.00  0.00    +0.000 C 
ATOM      4  C   UNL     1       2.513  -5.757  16.474  0.00  0.00    +0.000 C 
ATOM      5  C   UNL     1       0.213  -4.832  16.026  0.00  0.00    +0.000 C 
ATOM      6  C   UNL     1       1.726  -4.751  16.013  0.00  0.00    +0.000 C 
ATOM      7  H   UNL     1       0.285  -6.275  18.330  0.00  0.00    +0.000 HD
ATOM      8  H   UNL     1      -0.036  -7.860  17.642  0.00  0.00    +0.000 HD
ATOM      9  H   UNL     1      -1.409  -6.148  16.542  0.00  0.00    +0.000 HD
ATOM     10  H   UNL     1      -0.286  -6.831  15.378  0.00  0.00    +0.000 HD
ATOM     11  H   UNL     1      -0.160  -4.143  16.793  0.00  0.00    +0.000 HD
ATOM     12  H   UNL     1      -0.183  -4.482  15.064  0.00  0.00    +0.000 HD
ENDROOT
BRANCH   1  13
ATOM     13  C   UNL     1       2.113  -8.227  16.128  0.00  0.00    +0.000 C 
ATOM     14  H   UNL     1       1.504  -9.091  16.415  0.00  0.00    +0.000 HD
ATOM     15  H   UNL     1       1.826  -7.953  15.106  0.00  0.00    +0.000 HD
ATOM     16  H   UNL     1       3.159  -8.551  16.094  0.00  0.00    +0.000 HD
ENDBRANCH   1  13
BRANCH   1  17
ATOM     17  C   UNL     1       2.611  -7.397  18.446  0.00  0.00    +0.000 C 
ATOM     18  H   UNL     1       3.020  -8.415  18.418  0.00  0.00    +0.000 HD
ATOM     19  H   UNL     1       3.452  -6.733  18.673  0.00  0.00    +0.000 HD
ATOM     20  H   UNL     1       1.902  -7.348  19.281  0.00  0.00    +0.000 HD
ENDBRANCH   1  17
BRANCH   4  21
ATOM     21  C   UNL     1       3.964  -5.705  16.383  0.00  0.00    +0.000 C 
ATOM     22  C   UNL     1       4.620  -6.041  15.277  0.00  0.00    +0.000 C 
ATOM     23  H   UNL     1       4.503  -5.344  17.252  0.00  0.00    +0.000 HD
ATOM     24  H   UNL     1       4.140  -6.441  14.392  0.00  0.00    +0.000 HD
BRANCH  22  26
ATOM     25  O   UNL     1       6.813  -6.729  15.904  0.00  0.00    +0.000 OA
ATOM     26  C   UNL     1       6.107  -5.966  15.248  0.00  0.00    +0.000 C 
BRANCH  26  27
ATOM     27  C   UNL     1       6.717  -4.895  14.383  0.00  0.00    +0.000 C 
ATOM     28  H   UNL     1       7.430  -4.318  14.978  0.00  0.00    +0.000 HD
ATOM     29  H   UNL     1       7.258  -5.324  13.536  0.00  0.00    +0.000 HD
ATOM     30  H   UNL     1       5.926  -4.239  14.010  0.00  0.00    +0.000 HD
ENDBRANCH  26  27
ENDBRANCH  22  26
ENDBRANCH   4  21
BRANCH   6  31
ATOM     31  C   UNL     1       2.213  -3.443  15.434  0.00  0.00    +0.000 C 
ATOM     32  H   UNL     1       3.204  -3.192  15.822  0.00  0.00    +0.000 HD
ATOM     33  H   UNL     1       1.524  -2.609  15.595  0.00  0.00    +0.000 HD
ATOM     34  H   UNL     1       2.299  -3.530  14.343  0.00  0.00    +0.000 HD
ENDBRANCH   6  31
TORSDOF 6
ENDMDL
MODEL 4
REMARK VINA RESULT:    -4.945     26.460     27.663
REMARK INTER + INTRA:          -6.240
REMARK INTER:                  -6.044
REMARK INTRA:                  -0.196
REMARK UNBOUND:                -0.138
REMARK  Name = 638014
REMARK  6 active torsions:
REMARK  status: ('A' for Active; 'I' for Inactive)
REMARK    1  A    between atoms: C_2  and  C_8
REMARK    2  A    between atoms: C_2  and  C_9
REMARK    3  A    between atoms: C_5  and  C_10
REMARK    4  A    between atoms: C_7  and  C_11
REMARK    5  A    between atoms: C_12  and  C_13
REMARK    6  A    between atoms: C_13  and  C_14
REMARK                            x       y       z     vdW  Elec       q    Type
REMARK                         _______ _______ _______ _____ _____    ______ ____
ROOT
ATOM      1  C   UNL     1      -3.747  -7.504 -10.394  0.00  0.00    +0.000 C 
ATOM      2  C   UNL     1      -2.977  -7.744 -11.722  0.00  0.00    +0.000 C 
ATOM      3  C   UNL     1      -3.287  -6.686 -12.765  0.00  0.00    +0.000 C 
ATOM      4  C   UNL     1      -5.226  -7.135 -10.652  0.00  0.00    +0.000 C 
ATOM      5  C   UNL     1      -4.772  -6.694 -13.091  0.00  0.00    +0.000 C 
ATOM      6  C   UNL     1      -5.683  -6.795 -11.885  0.00  0.00    +0.000 C 
ATOM      7  H   UNL     1      -3.241  -8.728 -12.135  0.00  0.00    +0.000 HD
ATOM      8  H   UNL     1      -1.895  -7.769 -11.539  0.00  0.00    +0.000 HD
ATOM      9  H   UNL     1      -2.710  -6.878 -13.677  0.00  0.00    +0.000 HD
ATOM     10  H   UNL     1      -2.984  -5.694 -12.409  0.00  0.00    +0.000 HD
ATOM     11  H   UNL     1      -4.990  -7.539 -13.756  0.00  0.00    +0.000 HD
ATOM     12  H   UNL     1      -5.002  -5.779 -13.652  0.00  0.00    +0.000 HD
ENDROOT
BRANCH   1  13
ATOM     13  C   UNL     1      -3.058  -6.360  -9.613  0.00  0.00    +0.000 C 
ATOM     14  H   UNL     1      -3.424  -5.376  -9.924  0.00  0.00    +0.000 HD
ATOM     15  H   UNL     1      -3.235  -6.447  -8.535  0.00  0.00    +0.000 HD
ATOM     16  H   UNL     1      -1.972  -6.377  -9.764  0.00  0.00    +0.000 HD
ENDBRANCH   1  13
BRANCH   1  17
ATOM     17  C   UNL     1      -3.607  -8.811  -9.577  0.00  0.00    +0.000 C 
ATOM     18  H   UNL     1      -3.958  -8.668  -8.547  0.00  0.00    +0.000 HD
ATOM     19  H   UNL     1      -4.203  -9.629  -9.996  0.00  0.00    +0.000 HD
ATOM     20  H   UNL     1      -2.562  -9.141  -9.527  0.00  0.00    +0.000 HD
ENDBRANCH   1  17
BRANCH   4  21
ATOM     21  C   UNL     1      -6.092  -7.150  -9.484  0.00  0.00    +0.000 C 
ATOM     22  C   UNL     1      -6.318  -6.065  -8.752  0.00  0.00    +0.000 C 
ATOM     23  H   UNL     1      -6.587  -8.085  -9.244  0.00  0.00    +0.000 HD
ATOM     24  H   UNL     1      -5.828  -5.113  -8.920  0.00  0.00    +0.000 HD
BRANCH  22  26
ATOM     25  O   UNL     1      -6.975  -6.882  -6.612  0.00  0.00    +0.000 OA
ATOM     26  C   UNL     1      -7.216  -6.145  -7.566  0.00  0.00    +0.000 C 
BRANCH  26  27
ATOM     27  C   UNL     1      -8.455  -5.289  -7.592  0.00  0.00    +0.000 C 
ATOM     28  H   UNL     1      -8.213  -4.297  -7.200  0.00  0.00    +0.000 HD
ATOM     29  H   UNL     1      -8.833  -5.163  -8.610  0.00  0.00    +0.000 HD
ATOM     30  H   UNL     1      -9.228  -5.755  -6.977  0.00  0.00    +0.000 HD
ENDBRANCH  26  27
ENDBRANCH  22  26
ENDBRANCH   4  21
BRANCH   6  31
ATOM     31  C   UNL     1      -7.118  -6.473 -12.236  0.00  0.00    +0.000 C 
ATOM     32  H   UNL     1      -7.799  -6.855 -11.471  0.00  0.00    +0.000 HD
ATOM     33  H   UNL     1      -7.419  -6.836 -13.223  0.00  0.00    +0.000 HD
ATOM     34  H   UNL     1      -7.252  -5.385 -12.284  0.00  0.00    +0.000 HD
ENDBRANCH   6  31
TORSDOF 6
ENDMDL
MODEL 5
REMARK VINA RESULT:    -4.920     30.626     32.767
REMARK INTER + INTRA:          -6.208
REMARK INTER:                  -6.073
REMARK INTRA:                  -0.135
REMARK UNBOUND:                -0.138
REMARK  Name = 638014
REMARK  6 active torsions:
REMARK  status: ('A' for Active; 'I' for Inactive)
REMARK    1  A    between atoms: C_2  and  C_8
REMARK    2  A    between atoms: C_2  and  C_9
REMARK    3  A    between atoms: C_5  and  C_10
REMARK    4  A    between atoms: C_7  and  C_11
REMARK    5  A    between atoms: C_12  and  C_13
REMARK    6  A    between atoms: C_13  and  C_14
REMARK                            x       y       z     vdW  Elec       q    Type
REMARK                         _______ _______ _______ _____ _____    ______ ____
ROOT
ATOM      1  C   UNL     1       9.278  13.592  -6.625  0.00  0.00    +0.000 C 
ATOM      2  C   UNL     1       8.087  13.961  -5.698  0.00  0.00    +0.000 C 
ATOM      3  C   UNL     1       6.765  13.989  -6.444  0.00  0.00    +0.000 C 
ATOM      4  C   UNL     1       9.207  14.349  -7.971  0.00  0.00    +0.000 C 
ATOM      5  C   UNL     1       6.816  15.024  -7.556  0.00  0.00    +0.000 C 
ATOM      6  C   UNL     1       8.094  15.016  -8.370  0.00  0.00    +0.000 C 
ATOM      7  H   UNL     1       8.255  14.951  -5.250  0.00  0.00    +0.000 HD
ATOM      8  H   UNL     1       8.019  13.254  -4.861  0.00  0.00    +0.000 HD
ATOM      9  H   UNL     1       5.950  14.231  -5.753  0.00  0.00    +0.000 HD
ATOM     10  H   UNL     1       6.537  12.999  -6.858  0.00  0.00    +0.000 HD
ATOM     11  H   UNL     1       6.691  16.024  -7.123  0.00  0.00    +0.000 HD
ATOM     12  H   UNL     1       5.956  14.854  -8.218  0.00  0.00    +0.000 HD
ENDROOT
BRANCH   1  13
ATOM     13  C   UNL     1       9.257  12.068  -6.887  0.00  0.00    +0.000 C 
ATOM     14  H   UNL     1       9.351  11.493  -5.959  0.00  0.00    +0.000 HD
ATOM     15  H   UNL     1       8.321  11.757  -7.367  0.00  0.00    +0.000 HD
ATOM     16  H   UNL     1      10.076  11.769  -7.551  0.00  0.00    +0.000 HD
ENDBRANCH   1  13
BRANCH   1  17
ATOM     17  C   UNL     1      10.560  13.936  -5.830  0.00  0.00    +0.000 C 
ATOM     18  H   UNL     1      10.582  15.002  -5.565  0.00  0.00    +0.000 HD
ATOM     19  H   UNL     1      10.627  13.383  -4.887  0.00  0.00    +0.000 HD
ATOM     20  H   UNL     1      11.463  13.723  -6.415  0.00  0.00    +0.000 HD
ENDBRANCH   1  17
BRANCH   4  21
ATOM     21  C   UNL     1      10.402  14.279  -8.797  0.00  0.00    +0.000 C 
ATOM     22  C   UNL     1      11.314  15.246  -8.813  0.00  0.00    +0.000 C 
ATOM     23  H   UNL     1      10.548  13.379  -9.384  0.00  0.00    +0.000 HD
ATOM     24  H   UNL     1      11.207  16.181  -8.276  0.00  0.00    +0.000 HD
BRANCH  22  26
ATOM     25  O   UNL     1      13.627  14.850  -9.223  0.00  0.00    +0.000 OA
ATOM     26  C   UNL     1      12.517  15.115  -9.680  0.00  0.00    +0.000 C 
BRANCH  26  27
ATOM     27  C   UNL     1      12.319  15.338 -11.156  0.00  0.00    +0.000 C 
ATOM     28  H   UNL     1      12.442  16.403 -11.377  0.00  0.00    +0.000 HD
ATOM     29  H   UNL     1      13.055  14.787 -11.747  0.00  0.00    +0.000 HD
ATOM     30  H   UNL     1      11.315  15.012 -11.439  0.00  0.00    +0.000 HD
ENDBRANCH  26  27
ENDBRANCH  22  26
ENDBRANCH   4  21
BRANCH   6  31
ATOM     31  C   UNL     1       7.955  15.823  -9.640  0.00  0.00    +0.000 C 
ATOM     32  H   UNL     1       7.942  16.894  -9.419  0.00  0.00    +0.000 HD
ATOM     33  H   UNL     1       7.080  15.552 -10.237  0.00  0.00    +0.000 HD
ATOM     34  H   UNL     1       8.813  15.632 -10.297  0.00  0.00    +0.000 HD
ENDBRANCH   6  31
TORSDOF 6
ENDMDL
MODEL 6
REMARK VINA RESULT:    -4.893      3.026      5.070
REMARK INTER + INTRA:          -6.175
REMARK INTER:                  -5.922
REMARK INTRA:                  -0.254
REMARK UNBOUND:                -0.138
REMARK  Name = 638014
REMARK  6 active torsions:
REMARK  status: ('A' for Active; 'I' for Inactive)
REMARK    1  A    between atoms: C_2  and  C_8
REMARK    2  A    between atoms: C_2  and  C_9
REMARK    3  A    between atoms: C_5  and  C_10
REMARK    4  A    between atoms: C_7  and  C_11
REMARK    5  A    between atoms: C_12  and  C_13
REMARK    6  A    between atoms: C_13  and  C_14
REMARK                            x       y       z     vdW  Elec       q    Type
REMARK                         _______ _______ _______ _____ _____    ______ ____
ROOT
ATOM      1  C   UNL     1       2.394  -6.513  14.741  0.00  0.00    +0.000 C 
ATOM      2  C   UNL     1       1.668  -5.227  14.258  0.00  0.00    +0.000 C 
ATOM      3  C   UNL     1       1.134  -4.400  15.413  0.00  0.00    +0.000 C 
ATOM      4  C   UNL     1       1.596  -7.231  15.855  0.00  0.00    +0.000 C 
ATOM      5  C   UNL     1       0.132  -5.214  16.218  0.00  0.00    +0.000 C 
ATOM      6  C   UNL     1       0.557  -6.641  16.498  0.00  0.00    +0.000 C 
ATOM      7  H   UNL     1       0.827  -5.495  13.603  0.00  0.00    +0.000 HD
ATOM      8  H   UNL     1       2.344  -4.611  13.651  0.00  0.00    +0.000 HD
ATOM      9  H   UNL     1       0.649  -3.493  15.033  0.00  0.00    +0.000 HD
ATOM     10  H   UNL     1       1.955  -4.066  16.060  0.00  0.00    +0.000 HD
ATOM     11  H   UNL     1      -0.824  -5.240  15.680  0.00  0.00    +0.000 HD
ATOM     12  H   UNL     1      -0.049  -4.689  17.165  0.00  0.00    +0.000 HD
ENDROOT
BRANCH   1  13
ATOM     13  C   UNL     1       3.794  -6.130  15.273  0.00  0.00    +0.000 C 
ATOM     14  H   UNL     1       4.531  -6.920  15.088  0.00  0.00    +0.000 HD
ATOM     15  H   UNL     1       4.169  -5.218  14.793  0.00  0.00    +0.000 HD
ATOM     16  H   UNL     1       3.770  -5.941  16.352  0.00  0.00    +0.000 HD
ENDBRANCH   1  13
BRANCH   1  17
ATOM     17  C   UNL     1       2.569  -7.401  13.486  0.00  0.00    +0.000 C 
ATOM     18  H   UNL     1       3.411  -7.051  12.874  0.00  0.00    +0.000 HD
ATOM     19  H   UNL     1       2.786  -8.444  13.740  0.00  0.00    +0.000 HD
ATOM     20  H   UNL     1       1.672  -7.383  12.855  0.00  0.00    +0.000 HD
ENDBRANCH   1  17
BRANCH   4  21
ATOM     21  C   UNL     1       2.049  -8.573  16.188  0.00  0.00    +0.000 C 
ATOM     22  C   UNL     1       2.850  -8.818  17.220  0.00  0.00    +0.000 C 
ATOM     23  H   UNL     1       1.677  -9.388  15.578  0.00  0.00    +0.000 HD
ATOM     24  H   UNL     1       3.280  -8.043  17.844  0.00  0.00    +0.000 HD
BRANCH  22  26
ATOM     25  O   UNL     1       3.152 -10.720  18.623  0.00  0.00    +0.000 OA
ATOM     26  C   UNL     1       3.278 -10.215  17.509  0.00  0.00    +0.000 C 
BRANCH  26  27
ATOM     27  C   UNL     1       3.894 -10.986  16.372  0.00  0.00    +0.000 C 
ATOM     28  H   UNL     1       4.680 -10.380  15.913  0.00  0.00    +0.000 HD
ATOM     29  H   UNL     1       4.349 -11.917  16.720  0.00  0.00    +0.000 HD
ATOM     30  H   UNL     1       3.122 -11.218  15.634  0.00  0.00    +0.000 HD
ENDBRANCH  26  27
ENDBRANCH  22  26
ENDBRANCH   4  21
BRANCH   6  31
ATOM     31  C   UNL     1      -0.307  -7.285  17.557  0.00  0.00    +0.000 C 
ATOM     32  H   UNL     1      -0.630  -8.281  17.241  0.00  0.00    +0.000 HD
ATOM     33  H   UNL     1      -1.174  -6.683  17.842  0.00  0.00    +0.000 HD
ATOM     34  H   UNL     1       0.269  -7.404  18.484  0.00  0.00    +0.000 HD
ENDBRANCH   6  31
TORSDOF 6
ENDMDL
MODEL 7
REMARK VINA RESULT:    -4.884     30.502     32.915
REMARK INTER + INTRA:          -6.164
REMARK INTER:                  -5.940
REMARK INTRA:                  -0.224
REMARK UNBOUND:                -0.138
REMARK  Name = 638014
REMARK  6 active torsions:
REMARK  status: ('A' for Active; 'I' for Inactive)
REMARK    1  A    between atoms: C_2  and  C_8
REMARK    2  A    between atoms: C_2  and  C_9
REMARK    3  A    between atoms: C_5  and  C_10
REMARK    4  A    between atoms: C_7  and  C_11
REMARK    5  A    between atoms: C_12  and  C_13
REMARK    6  A    between atoms: C_13  and  C_14
REMARK                            x       y       z     vdW  Elec       q    Type
REMARK                         _______ _______ _______ _____ _____    ______ ____
ROOT
ATOM      1  C   UNL     1       7.850  15.520  -8.206  0.00  0.00    +0.000 C 
ATOM      2  C   UNL     1       6.510  15.214  -7.482  0.00  0.00    +0.000 C 
ATOM      3  C   UNL     1       6.724  14.684  -6.076  0.00  0.00    +0.000 C 
ATOM      4  C   UNL     1       8.882  14.389  -7.995  0.00  0.00    +0.000 C 
ATOM      5  C   UNL     1       7.523  13.391  -6.123  0.00  0.00    +0.000 C 
ATOM      6  C   UNL     1       8.709  13.415  -7.065  0.00  0.00    +0.000 C 
ATOM      7  H   UNL     1       5.938  14.468  -8.053  0.00  0.00    +0.000 HD
ATOM      8  H   UNL     1       5.882  16.113  -7.441  0.00  0.00    +0.000 HD
ATOM      9  H   UNL     1       5.757  14.501  -5.594  0.00  0.00    +0.000 HD
ATOM     10  H   UNL     1       7.243  15.427  -5.460  0.00  0.00    +0.000 HD
ATOM     11  H   UNL     1       6.862  12.569  -6.425  0.00  0.00    +0.000 HD
ATOM     12  H   UNL     1       7.865  13.166  -5.104  0.00  0.00    +0.000 HD
ENDROOT
BRANCH   1  13
ATOM     13  C   UNL     1       8.422  16.850  -7.662  0.00  0.00    +0.000 C 
ATOM     14  H   UNL     1       7.869  17.204  -6.785  0.00  0.00    +0.000 HD
ATOM     15  H   UNL     1       9.471  16.743  -7.363  0.00  0.00    +0.000 HD
ATOM     16  H   UNL     1       8.382  17.638  -8.423  0.00  0.00    +0.000 HD
ENDBRANCH   1  13
BRANCH   1  17
ATOM     17  C   UNL     1       7.494  15.712  -9.700  0.00  0.00    +0.000 C 
ATOM     18  H   UNL     1       6.828  16.574  -9.836  0.00  0.00    +0.000 HD
ATOM     19  H   UNL     1       8.378  15.905 -10.318  0.00  0.00    +0.000 HD
ATOM     20  H   UNL     1       6.981  14.831 -10.105  0.00  0.00    +0.000 HD
ENDBRANCH   1  17
BRANCH   4  21
ATOM     21  C   UNL     1      10.065  14.449  -8.839  0.00  0.00    +0.000 C 
ATOM     22  C   UNL     1      11.264  14.766  -8.362  0.00  0.00    +0.000 C 
ATOM     23  H   UNL     1       9.943  14.188  -9.884  0.00  0.00    +0.000 HD
ATOM     24  H   UNL     1      11.442  15.069  -7.338  0.00  0.00    +0.000 HD
BRANCH  22  26
ATOM     25  O   UNL     1      13.590  14.687  -8.872  0.00  0.00    +0.000 OA
ATOM     26  C   UNL     1      12.437  14.811  -9.279  0.00  0.00    +0.000 C 
BRANCH  26  27
ATOM     27  C   UNL     1      12.150  15.033 -10.741  0.00  0.00    +0.000 C 
ATOM     28  H   UNL     1      13.075  15.320 -11.248  0.00  0.00    +0.000 HD
ATOM     29  H   UNL     1      11.775  14.123 -11.217  0.00  0.00    +0.000 HD
ATOM     30  H   UNL     1      11.405  15.825 -10.845  0.00  0.00    +0.000 HD
ENDBRANCH  26  27
ENDBRANCH  22  26
ENDBRANCH   4  21
BRANCH   6  31
ATOM     31  C   UNL     1       9.638  12.246  -6.827  0.00  0.00    +0.000 C 
ATOM     32  H   UNL     1       9.079  11.306  -6.801  0.00  0.00    +0.000 HD
ATOM     33  H   UNL     1      10.246  12.346  -5.924  0.00  0.00    +0.000 HD
ATOM     34  H   UNL     1      10.363  12.175  -7.647  0.00  0.00    +0.000 HD
ENDBRANCH   6  31
TORSDOF 6
ENDMDL
MODEL 8
REMARK VINA RESULT:    -4.840     25.574     26.637
REMARK INTER + INTRA:          -6.110
REMARK INTER:                  -5.903
REMARK INTRA:                  -0.207
REMARK UNBOUND:                -0.138
REMARK  Name = 638014
REMARK  6 active torsions:
REMARK  status: ('A' for Active; 'I' for Inactive)
REMARK    1  A    between atoms: C_2  and  C_8
REMARK    2  A    between atoms: C_2  and  C_9
REMARK    3  A    between atoms: C_5  and  C_10
REMARK    4  A    between atoms: C_7  and  C_11
REMARK    5  A    between atoms: C_12  and  C_13
REMARK    6  A    between atoms: C_13  and  C_14
REMARK                            x       y       z     vdW  Elec       q    Type
REMARK                         _______ _______ _______ _____ _____    ______ ____
ROOT
ATOM      1  C   UNL     1      -3.605  -8.551  -9.745  0.00  0.00    +0.000 C 
ATOM      2  C   UNL     1      -3.071  -8.533 -11.205  0.00  0.00    +0.000 C 
ATOM      3  C   UNL     1      -3.991  -9.268 -12.162  0.00  0.00    +0.000 C 
ATOM      4  C   UNL     1      -4.118  -9.953  -9.345  0.00  0.00    +0.000 C 
ATOM      5  C   UNL     1      -4.125 -10.724 -11.743  0.00  0.00    +0.000 C 
ATOM      6  C   UNL     1      -4.325 -10.937 -10.257  0.00  0.00    +0.000 C 
ATOM      7  H   UNL     1      -2.078  -9.003 -11.245  0.00  0.00    +0.000 HD
ATOM      8  H   UNL     1      -2.934  -7.501 -11.550  0.00  0.00    +0.000 HD
ATOM      9  H   UNL     1      -3.591  -9.215 -13.181  0.00  0.00    +0.000 HD
ATOM     10  H   UNL     1      -4.978  -8.791 -12.191  0.00  0.00    +0.000 HD
ATOM     11  H   UNL     1      -3.225 -11.271 -12.050  0.00  0.00    +0.000 HD
ATOM     12  H   UNL     1      -4.967 -11.160 -12.296  0.00  0.00    +0.000 HD
ENDROOT
BRANCH   1  13
ATOM     13  C   UNL     1      -4.755  -7.524  -9.619  0.00  0.00    +0.000 C 
ATOM     14  H   UNL     1      -5.125  -7.450  -8.591  0.00  0.00    +0.000 HD
ATOM     15  H   UNL     1      -4.431  -6.521  -9.921  0.00  0.00    +0.000 HD
ATOM     16  H   UNL     1      -5.601  -7.797 -10.260  0.00  0.00    +0.000 HD
ENDBRANCH   1  13
BRANCH   1  17
ATOM     17  C   UNL     1      -2.429  -8.084  -8.854  0.00  0.00    +0.000 C 
ATOM     18  H   UNL     1      -2.239  -8.806  -8.049  0.00  0.00    +0.000 HD
ATOM     19  H   UNL     1      -1.492  -7.994  -9.415  0.00  0.00    +0.000 HD
ATOM     20  H   UNL     1      -2.641  -7.115  -8.387  0.00  0.00    +0.000 HD
ENDBRANCH   1  17
BRANCH   4  21
ATOM     21  C   UNL     1      -4.391 -10.143  -7.929  0.00  0.00    +0.000 C 
ATOM     22  C   UNL     1      -5.602  -9.972  -7.408  0.00  0.00    +0.000 C 
ATOM     23  H   UNL     1      -3.568 -10.469  -7.303  0.00  0.00    +0.000 HD
ATOM     24  H   UNL     1      -6.454  -9.615  -7.974  0.00  0.00    +0.000 HD
BRANCH  22  26
ATOM     25  O   UNL     1      -5.758 -11.297  -5.434  0.00  0.00    +0.000 OA
ATOM     26  C   UNL     1      -5.817 -10.182  -5.950  0.00  0.00    +0.000 C 
BRANCH  26  27
ATOM     27  C   UNL     1      -6.130  -8.961  -5.126  0.00  0.00    +0.000 C 
ATOM     28  H   UNL     1      -6.952  -8.414  -5.595  0.00  0.00    +0.000 HD
ATOM     29  H   UNL     1      -6.442  -9.231  -4.113  0.00  0.00    +0.000 HD
ATOM     30  H   UNL     1      -5.242  -8.327  -5.071  0.00  0.00    +0.000 HD
ENDBRANCH  26  27
ENDBRANCH  22  26
ENDBRANCH   4  21
BRANCH   6  31
ATOM     31  C   UNL     1      -4.773 -12.348  -9.948  0.00  0.00    +0.000 C 
ATOM     32  H   UNL     1      -4.210 -12.757  -9.104  0.00  0.00    +0.000 HD
ATOM     33  H   UNL     1      -4.709 -13.024 -10.805  0.00  0.00    +0.000 HD
ATOM     34  H   UNL     1      -5.833 -12.347  -9.668  0.00  0.00    +0.000 HD
ENDBRANCH   6  31
TORSDOF 6
ENDMDL
MODEL 9
REMARK VINA RESULT:    -4.771     23.556     25.591
REMARK INTER + INTRA:          -6.025
REMARK INTER:                  -5.784
REMARK INTRA:                  -0.241
REMARK UNBOUND:                -0.138
REMARK  Name = 638014
REMARK  6 active torsions:
REMARK  status: ('A' for Active; 'I' for Inactive)
REMARK    1  A    between atoms: C_2  and  C_8
REMARK    2  A    between atoms: C_2  and  C_9
REMARK    3  A    between atoms: C_5  and  C_10
REMARK    4  A    between atoms: C_7  and  C_11
REMARK    5  A    between atoms: C_12  and  C_13
REMARK    6  A    between atoms: C_13  and  C_14
REMARK                            x       y       z     vdW  Elec       q    Type
REMARK                         _______ _______ _______ _____ _____    ______ ____
ROOT
ATOM      1  C   UNL     1      16.052  10.228   2.113  0.00  0.00    +0.000 C 
ATOM      2  C   UNL     1      14.676  10.935   2.260  0.00  0.00    +0.000 C 
ATOM      3  C   UNL     1      14.565  11.713   3.559  0.00  0.00    +0.000 C 
ATOM      4  C   UNL     1      16.476   9.532   3.427  0.00  0.00    +0.000 C 
ATOM      5  C   UNL     1      14.723  10.773   4.744  0.00  0.00    +0.000 C 
ATOM      6  C   UNL     1      15.849   9.768   4.608  0.00  0.00    +0.000 C 
ATOM      7  H   UNL     1      13.868  10.191   2.229  0.00  0.00    +0.000 HD
ATOM      8  H   UNL     1      14.501  11.612   1.414  0.00  0.00    +0.000 HD
ATOM      9  H   UNL     1      13.591  12.213   3.614  0.00  0.00    +0.000 HD
ATOM     10  H   UNL     1      15.323  12.504   3.600  0.00  0.00    +0.000 HD
ATOM     11  H   UNL     1      13.787  10.221   4.893  0.00  0.00    +0.000 HD
ATOM     12  H   UNL     1      14.879  11.384   5.642  0.00  0.00    +0.000 HD
ENDROOT
BRANCH   1  13
ATOM     13  C   UNL     1      17.116  11.277   1.717  0.00  0.00    +0.000 C 
ATOM     14  H   UNL     1      16.835  12.286   2.039  0.00  0.00    +0.000 HD
ATOM     15  H   UNL     1      18.090  11.052   2.169  0.00  0.00    +0.000 HD
ATOM     16  H   UNL     1      17.262  11.302   0.631  0.00  0.00    +0.000 HD
ENDBRANCH   1  13
BRANCH   1  17
ATOM     17  C   UNL     1      15.893   9.223   0.947  0.00  0.00    +0.000 C 
ATOM     18  H   UNL     1      15.749   8.203   1.327  0.00  0.00    +0.000 HD
ATOM     19  H   UNL     1      15.022   9.445   0.322  0.00  0.00    +0.000 HD
ATOM     20  H   UNL     1      16.781   9.214   0.304  0.00  0.00    +0.000 HD
ENDBRANCH   1  17
BRANCH   4  21
ATOM     21  C   UNL     1      17.610   8.627   3.323  0.00  0.00    +0.000 C 
ATOM     22  C   UNL     1      18.860   9.026   3.529  0.00  0.00    +0.000 C 
ATOM     23  H   UNL     1      17.396   7.587   3.102  0.00  0.00    +0.000 HD
ATOM     24  H   UNL     1      19.139  10.055   3.718  0.00  0.00    +0.000 HD
BRANCH  22  26
ATOM     25  O   UNL     1      20.952   8.072   4.158  0.00  0.00    +0.000 OA
ATOM     26  C   UNL     1      19.978   8.049   3.407  0.00  0.00    +0.000 C 
BRANCH  26  27
ATOM     27  C   UNL     1      19.874   7.030   2.303  0.00  0.00    +0.000 C 
ATOM     28  H   UNL     1      19.329   6.156   2.673  0.00  0.00    +0.000 HD
ATOM     29  H   UNL     1      19.327   7.426   1.443  0.00  0.00    +0.000 HD
ATOM     30  H   UNL     1      20.878   6.738   1.986  0.00  0.00    +0.000 HD
ENDBRANCH  26  27
ENDBRANCH  22  26
ENDBRANCH   4  21
BRANCH   6  31
ATOM     31  C   UNL     1      16.162   9.096   5.925  0.00  0.00    +0.000 C 
ATOM     32  H   UNL     1      15.577   9.539   6.735  0.00  0.00    +0.000 HD
ATOM     33  H   UNL     1      17.225   9.108   6.180  0.00  0.00    +0.000 HD
ATOM     34  H   UNL     1      15.898   8.033   5.870  0.00  0.00    +0.000 HD
ENDBRANCH   6  31
TORSDOF 6
ENDMDL
MODEL 10
REMARK VINA RESULT:    -4.703     22.417     24.722
REMARK INTER + INTRA:          -5.941
REMARK INTER:                  -5.803
REMARK INTRA:                  -0.138
REMARK UNBOUND:                -0.138
REMARK  Name = 638014
REMARK  6 active torsions:
REMARK  status: ('A' for Active; 'I' for Inactive)
REMARK    1  A    between atoms: C_2  and  C_8
REMARK    2  A    between atoms: C_2  and  C_9
REMARK    3  A    between atoms: C_5  and  C_10
REMARK    4  A    between atoms: C_7  and  C_11
REMARK    5  A    between atoms: C_12  and  C_13
REMARK    6  A    between atoms: C_13  and  C_14
REMARK                            x       y       z     vdW  Elec       q    Type
REMARK                         _______ _______ _______ _____ _____    ______ ____
ROOT
ATOM      1  C   UNL     1      15.207  11.241   2.508  0.00  0.00    +0.000 C 
ATOM      2  C   UNL     1      16.216  10.476   1.607  0.00  0.00    +0.000 C 
ATOM      3  C   UNL     1      16.228   8.986   1.894  0.00  0.00    +0.000 C 
ATOM      4  C   UNL     1      15.292  10.775   3.980  0.00  0.00    +0.000 C 
ATOM      5  C   UNL     1      16.628   8.737   3.340  0.00  0.00    +0.000 C 
ATOM      6  C   UNL     1      15.961   9.652   4.347  0.00  0.00    +0.000 C 
ATOM      7  H   UNL     1      17.230  10.869   1.764  0.00  0.00    +0.000 HD
ATOM      8  H   UNL     1      15.985  10.641   0.547  0.00  0.00    +0.000 HD
ATOM      9  H   UNL     1      16.935   8.481   1.226  0.00  0.00    +0.000 HD
ATOM     10  H   UNL     1      15.243   8.547   1.694  0.00  0.00    +0.000 HD
ATOM     11  H   UNL     1      17.714   8.853   3.438  0.00  0.00    +0.000 HD
ATOM     12  H   UNL     1      16.396   7.691   3.581  0.00  0.00    +0.000 HD
ENDROOT
BRANCH   1  13
ATOM     13  C   UNL     1      13.775  11.004   1.972  0.00  0.00    +0.000 C 
ATOM     14  H   UNL     1      13.425   9.987   2.182  0.00  0.00    +0.000 HD
ATOM     15  H   UNL     1      13.057  11.695   2.428  0.00  0.00    +0.000 HD
ATOM     16  H   UNL     1      13.728  11.157   0.888  0.00  0.00    +0.000 HD
ENDBRANCH   1  13
BRANCH   1  17
ATOM     17  C   UNL     1      15.548  12.742   2.352  0.00  0.00    +0.000 C 
ATOM     18  H   UNL     1      15.729  12.995   1.298  0.00  0.00    +0.000 HD
ATOM     19  H   UNL     1      14.733  13.392   2.688  0.00  0.00    +0.000 HD
ATOM     20  H   UNL     1      16.450  13.008   2.915  0.00  0.00    +0.000 HD
ENDBRANCH   1  17
BRANCH   4  21
ATOM     21  C   UNL     1      14.586  11.603   4.944  0.00  0.00    +0.000 C 
ATOM     22  C   UNL     1      13.289  11.456   5.194  0.00  0.00    +0.000 C 
ATOM     23  H   UNL     1      15.169  12.336   5.491  0.00  0.00    +0.000 HD
ATOM     24  H   UNL     1      12.648  10.767   4.657  0.00  0.00    +0.000 HD
BRANCH  22  26
ATOM     25  O   UNL     1      13.000  13.487   6.406  0.00  0.00    +0.000 OA
ATOM     26  C   UNL     1      12.623  12.336   6.194  0.00  0.00    +0.000 C 
BRANCH  26  27
ATOM     27  C   UNL     1      11.466  11.746   6.956  0.00  0.00    +0.000 C 
ATOM     28  H   UNL     1      10.774  12.546   7.233  0.00  0.00    +0.000 HD
ATOM     29  H   UNL     1      10.916  11.022   6.351  0.00  0.00    +0.000 HD
ATOM     30  H   UNL     1      11.842  11.250   7.855  0.00  0.00    +0.000 HD
ENDBRANCH  26  27
ENDBRANCH  22  26
ENDBRANCH   4  21
BRANCH   6  31
ATOM     31  C   UNL     1      16.139   9.153   5.762  0.00  0.00    +0.000 C 
ATOM     32  H   UNL     1      16.655   9.899   6.374  0.00  0.00    +0.000 HD
ATOM     33  H   UNL     1      16.656   8.192   5.826  0.00  0.00    +0.000 HD
ATOM     34  H   UNL     1      15.157   8.975   6.219  0.00  0.00    +0.000 HD
ENDBRANCH   6  31
TORSDOF 6
ENDMDL
