MODEL 1
REMARK VINA RESULT:    -3.193      0.000      0.000
REMARK INTER + INTRA:          -3.662
REMARK INTER:                  -3.659
REMARK INTRA:                  -0.002
REMARK UNBOUND:                -0.002
REMARK  Name = 261
REMARK  3 active torsions:
REMARK  status: ('A' for Active; 'I' for Inactive)
REMARK    1  A    between atoms: C_2  and  C_3
REMARK    2  A    between atoms: C_2  and  C_4
REMARK    3  A    between atoms: C_3  and  C_5
REMARK                            x       y       z     vdW  Elec       q    Type
REMARK                         _______ _______ _______ _____ _____    ______ ____
ROOT
ATOM      1  C   UNL     1       2.793  -3.456  15.749  0.00  0.00    +0.000 C 
ATOM      2  H   UNL     1       2.832  -2.988  16.740  0.00  0.00    +0.000 HD
ATOM      3  H   UNL     1       3.252  -4.447  15.848  0.00  0.00    +0.000 HD
ENDROOT
BRANCH   1   4
ATOM      4  C   UNL     1       3.604  -2.625  14.768  0.00  0.00    +0.000 C 
ATOM      5  H   UNL     1       3.132  -1.653  14.593  0.00  0.00    +0.000 HD
ATOM      6  H   UNL     1       4.610  -2.447  15.163  0.00  0.00    +0.000 HD
ATOM      7  H   UNL     1       3.703  -3.139  13.806  0.00  0.00    +0.000 HD
ENDBRANCH   1   4
BRANCH   1   8
ATOM      8  C   UNL     1       1.344  -3.595  15.297  0.00  0.00    +0.000 C 
ATOM      9  H   UNL     1       0.750  -2.742  15.640  0.00  0.00    +0.000 HD
ATOM     10  H   UNL     1       1.287  -3.633  14.203  0.00  0.00    +0.000 HD
BRANCH   8  12
ATOM     11  O   UNL     1       0.149  -5.701  15.130  0.00  0.00    +0.000 OA
ATOM     12  C   UNL     1       0.690  -4.849  15.825  0.00  0.00    +0.000 C 
ATOM     13  H   UNL     1       0.731  -4.967  16.922  0.00  0.00    +0.000 HD
ENDBRANCH   8  12
ENDBRANCH   1   8
TORSDOF 3
ENDMDL
MODEL 2
REMARK VINA RESULT:    -3.081     15.257     15.952
REMARK INTER + INTRA:          -3.534
REMARK INTER:                  -3.510
REMARK INTRA:                  -0.024
REMARK UNBOUND:                -0.002
REMARK  Name = 261
REMARK  3 active torsions:
REMARK  status: ('A' for Active; 'I' for Inactive)
REMARK    1  A    between atoms: C_2  and  C_3
REMARK    2  A    between atoms: C_2  and  C_4
REMARK    3  A    between atoms: C_3  and  C_5
REMARK                            x       y       z     vdW  Elec       q    Type
REMARK                         _______ _______ _______ _____ _____    ______ ____
ROOT
ATOM      1  C   UNL     1       4.167  -2.583  -1.590  0.00  0.00    +0.000 C 
ATOM      2  H   UNL     1       4.589  -1.711  -2.105  0.00  0.00    +0.000 HD
ATOM      3  H   UNL     1       4.003  -3.352  -2.354  0.00  0.00    +0.000 HD
ENDROOT
BRANCH   1   4
ATOM      4  C   UNL     1       2.833  -2.203  -0.968  0.00  0.00    +0.000 C 
ATOM      5  H   UNL     1       2.967  -1.460  -0.176  0.00  0.00    +0.000 HD
ATOM      6  H   UNL     1       2.169  -1.775  -1.726  0.00  0.00    +0.000 HD
ATOM      7  H   UNL     1       2.337  -3.079  -0.538  0.00  0.00    +0.000 HD
ENDBRANCH   1   4
BRANCH   1   8
ATOM      8  C   UNL     1       5.148  -3.091  -0.540  0.00  0.00    +0.000 C 
ATOM      9  H   UNL     1       5.838  -3.819  -0.979  0.00  0.00    +0.000 HD
ATOM     10  H   UNL     1       5.739  -2.261  -0.137  0.00  0.00    +0.000 HD
BRANCH   8  12
ATOM     11  O   UNL     1       5.027  -4.190   1.621  0.00  0.00    +0.000 OA
ATOM     12  C   UNL     1       4.458  -3.760   0.624  0.00  0.00    +0.000 C 
ATOM     13  H   UNL     1       3.361  -3.840   0.530  0.00  0.00    +0.000 HD
ENDBRANCH   8  12
ENDBRANCH   1   8
TORSDOF 3
ENDMDL
MODEL 3
REMARK VINA RESULT:    -3.069     18.738     19.365
REMARK INTER + INTRA:          -3.519
REMARK INTER:                  -3.517
REMARK INTRA:                  -0.002
REMARK UNBOUND:                -0.002
REMARK  Name = 261
REMARK  3 active torsions:
REMARK  status: ('A' for Active; 'I' for Inactive)
REMARK    1  A    between atoms: C_2  and  C_3
REMARK    2  A    between atoms: C_2  and  C_4
REMARK    3  A    between atoms: C_3  and  C_5
REMARK                            x       y       z     vdW  Elec       q    Type
REMARK                         _______ _______ _______ _____ _____    ______ ____
ROOT
ATOM      1  C   UNL     1      10.977  -9.084  -1.693  0.00  0.00    +0.000 C 
ATOM      2  H   UNL     1      10.431  -8.276  -2.193  0.00  0.00    +0.000 HD
ATOM      3  H   UNL     1      11.478  -8.637  -0.825  0.00  0.00    +0.000 HD
ENDROOT
BRANCH   1   4
ATOM      4  C   UNL     1      12.024  -9.646  -2.640  0.00  0.00    +0.000 C 
ATOM      5  H   UNL     1      12.975  -9.115  -2.533  0.00  0.00    +0.000 HD
ATOM      6  H   UNL     1      12.201 -10.705  -2.425  0.00  0.00    +0.000 HD
ATOM      7  H   UNL     1      11.698  -9.561  -3.681  0.00  0.00    +0.000 HD
ENDBRANCH   1   4
BRANCH   1   8
ATOM      8  C   UNL     1      10.003 -10.163  -1.234  0.00  0.00    +0.000 C 
ATOM      9  H   UNL     1       9.727 -10.813  -2.070  0.00  0.00    +0.000 HD
ATOM     10  H   UNL     1      10.460 -10.784  -0.455  0.00  0.00    +0.000 HD
BRANCH   8  12
ATOM     11  O   UNL     1       8.620  -9.113   0.462  0.00  0.00    +0.000 OA
ATOM     12  C   UNL     1       8.729  -9.589  -0.662  0.00  0.00    +0.000 C 
ATOM     13  H   UNL     1       7.861  -9.616  -1.344  0.00  0.00    +0.000 HD
ENDBRANCH   8  12
ENDBRANCH   1   8
TORSDOF 3
ENDMDL
MODEL 4
REMARK VINA RESULT:    -3.055      1.963      3.510
REMARK INTER + INTRA:          -3.503
REMARK INTER:                  -3.501
REMARK INTRA:                  -0.002
REMARK UNBOUND:                -0.002
REMARK  Name = 261
REMARK  3 active torsions:
REMARK  status: ('A' for Active; 'I' for Inactive)
REMARK    1  A    between atoms: C_2  and  C_3
REMARK    2  A    between atoms: C_2  and  C_4
REMARK    3  A    between atoms: C_3  and  C_5
REMARK                            x       y       z     vdW  Elec       q    Type
REMARK                         _______ _______ _______ _____ _____    ______ ____
ROOT
ATOM      1  C   UNL     1       0.180  -5.200  16.280  0.00  0.00    +0.000 C 
ATOM      2  H   UNL     1       0.812  -5.281  17.173  0.00  0.00    +0.000 HD
ATOM      3  H   UNL     1      -0.581  -4.442  16.499  0.00  0.00    +0.000 HD
ENDROOT
BRANCH   1   4
ATOM      4  C   UNL     1      -0.500  -6.534  16.022  0.00  0.00    +0.000 C 
ATOM      5  H   UNL     1      -1.067  -6.511  15.087  0.00  0.00    +0.000 HD
ATOM      6  H   UNL     1       0.247  -7.332  15.946  0.00  0.00    +0.000 HD
ATOM      7  H   UNL     1      -1.186  -6.789  16.836  0.00  0.00    +0.000 HD
ENDBRANCH   1   4
BRANCH   1   8
ATOM      8  C   UNL     1       1.023  -4.762  15.087  0.00  0.00    +0.000 C 
ATOM      9  H   UNL     1       1.738  -5.545  14.813  0.00  0.00    +0.000 HD
ATOM     10  H   UNL     1       0.382  -4.566  14.219  0.00  0.00    +0.000 HD
BRANCH   8  12
ATOM     11  O   UNL     1       1.611  -2.423  14.814  0.00  0.00    +0.000 OA
ATOM     12  C   UNL     1       1.807  -3.502  15.361  0.00  0.00    +0.000 C 
ATOM     13  H   UNL     1       2.601  -3.606  16.121  0.00  0.00    +0.000 HD
ENDBRANCH   8  12
ENDBRANCH   1   8
TORSDOF 3
ENDMDL
MODEL 5
REMARK VINA RESULT:    -2.847     15.780     16.039
REMARK INTER + INTRA:          -3.266
REMARK INTER:                  -3.261
REMARK INTRA:                  -0.005
REMARK UNBOUND:                -0.002
REMARK  Name = 261
REMARK  3 active torsions:
REMARK  status: ('A' for Active; 'I' for Inactive)
REMARK    1  A    between atoms: C_2  and  C_3
REMARK    2  A    between atoms: C_2  and  C_4
REMARK    3  A    between atoms: C_3  and  C_5
REMARK                            x       y       z     vdW  Elec       q    Type
REMARK                         _______ _______ _______ _____ _____    ______ ____
ROOT
ATOM      1  C   UNL     1       2.067 -12.840   2.759  0.00  0.00    +0.000 C 
ATOM      2  H   UNL     1       1.228 -12.567   3.410  0.00  0.00    +0.000 HD
ATOM      3  H   UNL     1       1.634 -13.293   1.859  0.00  0.00    +0.000 HD
ENDROOT
BRANCH   1   4
ATOM      4  C   UNL     1       2.940 -13.863   3.464  0.00  0.00    +0.000 C 
ATOM      5  H   UNL     1       3.986 -13.766   3.156  0.00  0.00    +0.000 HD
ATOM      6  H   UNL     1       2.892 -13.720   4.549  0.00  0.00    +0.000 HD
ATOM      7  H   UNL     1       2.609 -14.883   3.241  0.00  0.00    +0.000 HD
ENDBRANCH   1   4
BRANCH   1   8
ATOM      8  C   UNL     1       2.860 -11.592   2.384  0.00  0.00    +0.000 C 
ATOM      9  H   UNL     1       2.205 -10.715   2.355  0.00  0.00    +0.000 HD
ATOM     10  H   UNL     1       3.648 -11.406   3.122  0.00  0.00    +0.000 HD
BRANCH   8  12
ATOM     11  O   UNL     1       3.128 -11.169   0.009  0.00  0.00    +0.000 OA
ATOM     12  C   UNL     1       3.525 -11.711   1.034  0.00  0.00    +0.000 C 
ATOM     13  H   UNL     1       4.434 -12.336   1.018  0.00  0.00    +0.000 HD
ENDBRANCH   8  12
ENDBRANCH   1   8
TORSDOF 3
ENDMDL
MODEL 6
REMARK VINA RESULT:    -2.826     15.728     15.966
REMARK INTER + INTRA:          -3.241
REMARK INTER:                  -3.205
REMARK INTRA:                  -0.036
REMARK UNBOUND:                -0.002
REMARK  Name = 261
REMARK  3 active torsions:
REMARK  status: ('A' for Active; 'I' for Inactive)
REMARK    1  A    between atoms: C_2  and  C_3
REMARK    2  A    between atoms: C_2  and  C_4
REMARK    3  A    between atoms: C_3  and  C_5
REMARK                            x       y       z     vdW  Elec       q    Type
REMARK                         _______ _______ _______ _____ _____    ______ ____
ROOT
ATOM      1  C   UNL     1       2.695 -12.092   2.841  0.00  0.00    +0.000 C 
ATOM      2  H   UNL     1       2.960 -11.387   3.639  0.00  0.00    +0.000 HD
ATOM      3  H   UNL     1       1.640 -11.915   2.601  0.00  0.00    +0.000 HD
ENDROOT
BRANCH   1   4
ATOM      4  C   UNL     1       2.862 -13.514   3.350  0.00  0.00    +0.000 C 
ATOM      5  H   UNL     1       3.126 -13.522   4.412  0.00  0.00    +0.000 HD
ATOM      6  H   UNL     1       1.928 -14.072   3.229  0.00  0.00    +0.000 HD
ATOM      7  H   UNL     1       3.646 -14.040   2.796  0.00  0.00    +0.000 HD
ENDBRANCH   1   4
BRANCH   1   8
ATOM      8  C   UNL     1       3.561 -11.833   1.613  0.00  0.00    +0.000 C 
ATOM      9  H   UNL     1       3.034 -12.132   0.701  0.00  0.00    +0.000 HD
ATOM     10  H   UNL     1       3.801 -10.766   1.533  0.00  0.00    +0.000 HD
BRANCH   8  12
ATOM     11  O   UNL     1       5.930 -12.124   2.054  0.00  0.00    +0.000 OA
ATOM     12  C   UNL     1       4.867 -12.587   1.654  0.00  0.00    +0.000 C 
ATOM     13  H   UNL     1       4.813 -13.629   1.295  0.00  0.00    +0.000 HD
ENDBRANCH   8  12
ENDBRANCH   1   8
TORSDOF 3
ENDMDL
MODEL 7
REMARK VINA RESULT:    -2.790     16.807     17.488
REMARK INTER + INTRA:          -3.200
REMARK INTER:                  -3.197
REMARK INTRA:                  -0.003
REMARK UNBOUND:                -0.002
REMARK  Name = 261
REMARK  3 active torsions:
REMARK  status: ('A' for Active; 'I' for Inactive)
REMARK    1  A    between atoms: C_2  and  C_3
REMARK    2  A    between atoms: C_2  and  C_4
REMARK    3  A    between atoms: C_3  and  C_5
REMARK                            x       y       z     vdW  Elec       q    Type
REMARK                         _______ _______ _______ _____ _____    ______ ____
ROOT
ATOM      1  C   UNL     1       4.282  -2.719  -0.833  0.00  0.00    +0.000 C 
ATOM      2  H   UNL     1       4.209  -3.658  -0.272  0.00  0.00    +0.000 HD
ATOM      3  H   UNL     1       4.862  -2.025  -0.212  0.00  0.00    +0.000 HD
ENDROOT
BRANCH   1   4
ATOM      4  C   UNL     1       2.889  -2.152  -1.049  0.00  0.00    +0.000 C 
ATOM      5  H   UNL     1       2.809  -1.670  -2.028  0.00  0.00    +0.000 HD
ATOM      6  H   UNL     1       2.143  -2.952  -1.003  0.00  0.00    +0.000 HD
ATOM      7  H   UNL     1       2.642  -1.413  -0.280  0.00  0.00    +0.000 HD
ENDBRANCH   1   4
BRANCH   1   8
ATOM      8  C   UNL     1       5.000  -2.958  -2.157  0.00  0.00    +0.000 C 
ATOM      9  H   UNL     1       4.725  -3.933  -2.572  0.00  0.00    +0.000 HD
ATOM     10  H   UNL     1       4.724  -2.187  -2.885  0.00  0.00    +0.000 HD
BRANCH   8  12
ATOM     11  O   UNL     1       7.164  -3.759  -1.405  0.00  0.00    +0.000 OA
ATOM     12  C   UNL     1       6.502  -2.928  -2.016  0.00  0.00    +0.000 C 
ATOM     13  H   UNL     1       6.999  -2.082  -2.521  0.00  0.00    +0.000 HD
ENDBRANCH   8  12
ENDBRANCH   1   8
TORSDOF 3
ENDMDL
MODEL 8
REMARK VINA RESULT:    -2.755     15.505     15.625
REMARK INTER + INTRA:          -3.160
REMARK INTER:                  -3.131
REMARK INTRA:                  -0.029
REMARK UNBOUND:                -0.002
REMARK  Name = 261
REMARK  3 active torsions:
REMARK  status: ('A' for Active; 'I' for Inactive)
REMARK    1  A    between atoms: C_2  and  C_3
REMARK    2  A    between atoms: C_2  and  C_4
REMARK    3  A    between atoms: C_3  and  C_5
REMARK                            x       y       z     vdW  Elec       q    Type
REMARK                         _______ _______ _______ _____ _____    ______ ____
ROOT
ATOM      1  C   UNL     1       2.867 -11.507   1.662  0.00  0.00    +0.000 C 
ATOM      2  H   UNL     1       2.114 -11.414   0.871  0.00  0.00    +0.000 HD
ATOM      3  H   UNL     1       3.088 -10.491   2.010  0.00  0.00    +0.000 HD
ENDROOT
BRANCH   1   4
ATOM      4  C   UNL     1       4.130 -12.125   1.086  0.00  0.00    +0.000 C 
ATOM      5  H   UNL     1       4.156 -13.204   1.265  0.00  0.00    +0.000 HD
ATOM      6  H   UNL     1       4.173 -11.960   0.004  0.00  0.00    +0.000 HD
ATOM      7  H   UNL     1       5.025 -11.679   1.532  0.00  0.00    +0.000 HD
ENDBRANCH   1   4
BRANCH   1   8
ATOM      8  C   UNL     1       2.312 -12.341   2.812  0.00  0.00    +0.000 C 
ATOM      9  H   UNL     1       2.111 -11.710   3.683  0.00  0.00    +0.000 HD
ATOM     10  H   UNL     1       1.372 -12.822   2.515  0.00  0.00    +0.000 HD
BRANCH   8  12
ATOM     11  O   UNL     1       2.953 -14.380   3.962  0.00  0.00    +0.000 OA
ATOM     12  C   UNL     1       3.259 -13.434   3.246  0.00  0.00    +0.000 C 
ATOM     13  H   UNL     1       4.289 -13.335   2.862  0.00  0.00    +0.000 HD
ENDBRANCH   8  12
ENDBRANCH   1   8
TORSDOF 3
ENDMDL
MODEL 9
REMARK VINA RESULT:    -2.687     15.971     16.651
REMARK INTER + INTRA:          -3.082
REMARK INTER:                  -3.053
REMARK INTRA:                  -0.029
REMARK UNBOUND:                -0.002
REMARK  Name = 261
REMARK  3 active torsions:
REMARK  status: ('A' for Active; 'I' for Inactive)
REMARK    1  A    between atoms: C_2  and  C_3
REMARK    2  A    between atoms: C_2  and  C_4
REMARK    3  A    between atoms: C_3  and  C_5
REMARK                            x       y       z     vdW  Elec       q    Type
REMARK                         _______ _______ _______ _____ _____    ______ ____
ROOT
ATOM      1  C   UNL     1       3.804  -3.276   0.413  0.00  0.00    +0.000 C 
ATOM      2  H   UNL     1       3.213  -2.655   1.097  0.00  0.00    +0.000 HD
ATOM      3  H   UNL     1       3.297  -4.246   0.349  0.00  0.00    +0.000 HD
ENDROOT
BRANCH   1   4
ATOM      4  C   UNL     1       5.196  -3.475   0.989  0.00  0.00    +0.000 C 
ATOM      5  H   UNL     1       5.919  -2.810   0.507  0.00  0.00    +0.000 HD
ATOM      6  H   UNL     1       5.197  -3.255   2.062  0.00  0.00    +0.000 HD
ATOM      7  H   UNL     1       5.533  -4.508   0.854  0.00  0.00    +0.000 HD
ENDBRANCH   1   4
BRANCH   1   8
ATOM      8  C   UNL     1       3.858  -2.624  -0.965  0.00  0.00    +0.000 C 
ATOM      9  H   UNL     1       3.047  -2.996  -1.598  0.00  0.00    +0.000 HD
ATOM     10  H   UNL     1       3.751  -1.537  -0.876  0.00  0.00    +0.000 HD
BRANCH   8  12
ATOM     11  O   UNL     1       5.250  -3.275  -2.843  0.00  0.00    +0.000 OA
ATOM     12  C   UNL     1       5.159  -2.891  -1.682  0.00  0.00    +0.000 C 
ATOM     13  H   UNL     1       6.066  -2.708  -1.082  0.00  0.00    +0.000 HD
ENDBRANCH   8  12
ENDBRANCH   1   8
TORSDOF 3
ENDMDL
MODEL 10
REMARK VINA RESULT:    -2.616     18.141     18.538
REMARK INTER + INTRA:          -3.000
REMARK INTER:                  -2.998
REMARK INTRA:                  -0.002
REMARK UNBOUND:                -0.002
REMARK  Name = 261
REMARK  3 active torsions:
REMARK  status: ('A' for Active; 'I' for Inactive)
REMARK    1  A    between atoms: C_2  and  C_3
REMARK    2  A    between atoms: C_2  and  C_4
REMARK    3  A    between atoms: C_3  and  C_5
REMARK                            x       y       z     vdW  Elec       q    Type
REMARK                         _______ _______ _______ _____ _____    ______ ____
ROOT
ATOM      1  C   UNL     1      10.083  -9.834  -0.594  0.00  0.00    +0.000 C 
ATOM      2  H   UNL     1      10.464  -9.841   0.434  0.00  0.00    +0.000 HD
ATOM      3  H   UNL     1      10.381 -10.786  -1.048  0.00  0.00    +0.000 HD
ENDROOT
BRANCH   1   4
ATOM      4  C   UNL     1      10.726  -8.690  -1.361  0.00  0.00    +0.000 C 
ATOM      5  H   UNL     1      11.449  -9.065  -2.091  0.00  0.00    +0.000 HD
ATOM      6  H   UNL     1       9.963  -8.120  -1.901  0.00  0.00    +0.000 HD
ATOM      7  H   UNL     1      11.245  -8.005  -0.682  0.00  0.00    +0.000 HD
ENDBRANCH   1   4
BRANCH   1   8
ATOM      8  C   UNL     1       8.563  -9.715  -0.584  0.00  0.00    +0.000 C 
ATOM      9  H   UNL     1       8.245  -8.898   0.073  0.00  0.00    +0.000 HD
ATOM     10  H   UNL     1       8.190  -9.506  -1.593  0.00  0.00    +0.000 HD
BRANCH   8  12
ATOM     11  O   UNL     1       6.858 -11.443  -0.584  0.00  0.00    +0.000 OA
ATOM     12  C   UNL     1       7.885 -10.976  -0.105  0.00  0.00    +0.000 C 
ATOM     13  H   UNL     1       8.390 -11.483   0.735  0.00  0.00    +0.000 HD
ENDBRANCH   8  12
ENDBRANCH   1   8
TORSDOF 3
ENDMDL
