MODEL 1
REMARK VINA RESULT:    -5.103      0.000      0.000
REMARK INTER + INTRA:          -7.064
REMARK INTER:                  -6.751
REMARK INTRA:                  -0.312
REMARK UNBOUND:                -0.319
REMARK  Name = 638011
REMARK  7 active torsions:
REMARK  status: ('A' for Active; 'I' for Inactive)
REMARK    1  A    between atoms: C_2  and  C_3
REMARK    2  A    between atoms: C_2  and  C_4
REMARK    3  A    between atoms: C_3  and  C_5
REMARK    4  A    between atoms: C_4  and  C_7
REMARK    5  A    between atoms: C_6  and  C_9
REMARK    6  A    between atoms: C_6  and  C_10
REMARK    7  A    between atoms: C_8  and  C_11
REMARK                            x       y       z     vdW  Elec       q    Type
REMARK                         _______ _______ _______ _____ _____    ______ ____
ROOT
ATOM      1  C   UNL     1       4.840 -12.193  -0.493  0.00  0.00    +0.000 C 
ATOM      2  H   UNL     1       4.972 -11.147  -0.779  0.00  0.00    +0.000 HD
ATOM      3  H   UNL     1       4.103 -12.604  -1.194  0.00  0.00    +0.000 HD
ENDROOT
BRANCH   1   4
ATOM      4  C   UNL     1       6.162 -12.948  -0.692  0.00  0.00    +0.000 C 
ATOM      5  H   UNL     1       6.261 -13.230  -1.747  0.00  0.00    +0.000 HD
ATOM      6  H   UNL     1       6.125 -13.890  -0.130  0.00  0.00    +0.000 HD
BRANCH   4   7
ATOM      7  C   UNL     1       7.387 -12.156  -0.277  0.00  0.00    +0.000 C 
ATOM      8  C   UNL     1       7.606 -10.854  -0.530  0.00  0.00    +0.000 C 
ATOM      9  H   UNL     1       6.849 -10.273  -1.050  0.00  0.00    +0.000 HD
BRANCH   7  10
ATOM     10  C   UNL     1       8.403 -12.936   0.519  0.00  0.00    +0.000 C 
ATOM     11  H   UNL     1       8.184 -14.007   0.573  0.00  0.00    +0.000 HD
ATOM     12  H   UNL     1       8.482 -12.538   1.536  0.00  0.00    +0.000 HD
ATOM     13  H   UNL     1       9.391 -12.864   0.050  0.00  0.00    +0.000 HD
ENDBRANCH   7  10
BRANCH   8  15
ATOM     14  O   UNL     1       8.688  -8.984   0.432  0.00  0.00    +0.000 OA
ATOM     15  C   UNL     1       8.791 -10.090  -0.085  0.00  0.00    +0.000 C 
ATOM     16  H   UNL     1       9.771 -10.578  -0.219  0.00  0.00    +0.000 HD
ENDBRANCH   8  15
ENDBRANCH   4   7
ENDBRANCH   1   4
BRANCH   1  17
ATOM     17  C   UNL     1       4.287 -12.349   0.897  0.00  0.00    +0.000 C 
ATOM     18  C   UNL     1       3.205 -11.753   1.432  0.00  0.00    +0.000 C 
ATOM     19  H   UNL     1       4.838 -13.055   1.518  0.00  0.00    +0.000 HD
BRANCH  18  20
ATOM     20  C   UNL     1       2.800 -12.047   2.852  0.00  0.00    +0.000 C 
ATOM     21  H   UNL     1       3.684 -12.275   3.458  0.00  0.00    +0.000 HD
ATOM     22  H   UNL     1       2.125 -12.909   2.884  0.00  0.00    +0.000 HD
ATOM     23  H   UNL     1       2.283 -11.204   3.324  0.00  0.00    +0.000 HD
ENDBRANCH  18  20
BRANCH  18  24
ATOM     24  C   UNL     1       2.321 -10.762   0.729  0.00  0.00    +0.000 C 
ATOM     25  H   UNL     1       2.858  -9.818   0.587  0.00  0.00    +0.000 HD
ATOM     26  H   UNL     1       1.399 -10.531   1.264  0.00  0.00    +0.000 HD
ATOM     27  H   UNL     1       2.039 -11.148  -0.257  0.00  0.00    +0.000 HD
ENDBRANCH  18  24
ENDBRANCH   1  17
TORSDOF 7
ENDMDL
MODEL 2
REMARK VINA RESULT:    -4.693      4.229      7.982
REMARK INTER + INTRA:          -6.522
REMARK INTER:                  -6.256
REMARK INTRA:                  -0.265
REMARK UNBOUND:                -0.319
REMARK  Name = 638011
REMARK  7 active torsions:
REMARK  status: ('A' for Active; 'I' for Inactive)
REMARK    1  A    between atoms: C_2  and  C_3
REMARK    2  A    between atoms: C_2  and  C_4
REMARK    3  A    between atoms: C_3  and  C_5
REMARK    4  A    between atoms: C_4  and  C_7
REMARK    5  A    between atoms: C_6  and  C_9
REMARK    6  A    between atoms: C_6  and  C_10
REMARK    7  A    between atoms: C_8  and  C_11
REMARK                            x       y       z     vdW  Elec       q    Type
REMARK                         _______ _______ _______ _____ _____    ______ ____
ROOT
ATOM      1  C   UNL     1      11.404 -10.537  -2.718  0.00  0.00    +0.000 C 
ATOM      2  H   UNL     1      11.348 -11.557  -2.329  0.00  0.00    +0.000 HD
ATOM      3  H   UNL     1      10.718 -10.504  -3.574  0.00  0.00    +0.000 HD
ENDROOT
BRANCH   1   4
ATOM      4  C   UNL     1      10.887  -9.556  -1.655  0.00  0.00    +0.000 C 
ATOM      5  H   UNL     1      10.842  -8.548  -2.085  0.00  0.00    +0.000 HD
ATOM      6  H   UNL     1      11.614  -9.503  -0.834  0.00  0.00    +0.000 HD
BRANCH   4   7
ATOM      7  C   UNL     1       9.522  -9.917  -1.103  0.00  0.00    +0.000 C 
ATOM      8  C   UNL     1       8.988 -11.151  -1.065  0.00  0.00    +0.000 C 
ATOM      9  H   UNL     1       9.567 -11.997  -1.423  0.00  0.00    +0.000 HD
BRANCH   7  10
ATOM     10  C   UNL     1       8.747  -8.758  -0.526  0.00  0.00    +0.000 C 
ATOM     11  H   UNL     1       7.814  -9.059  -0.040  0.00  0.00    +0.000 HD
ATOM     12  H   UNL     1       8.521  -8.023  -1.303  0.00  0.00    +0.000 HD
ATOM     13  H   UNL     1       9.334  -8.259   0.254  0.00  0.00    +0.000 HD
ENDBRANCH   7  10
BRANCH   8  15
ATOM     14  O   UNL     1       7.562 -12.182   0.515  0.00  0.00    +0.000 OA
ATOM     15  C   UNL     1       7.669 -11.487  -0.489  0.00  0.00    +0.000 C 
ATOM     16  H   UNL     1       6.787 -11.061  -0.994  0.00  0.00    +0.000 HD
ENDBRANCH   8  15
ENDBRANCH   4   7
ENDBRANCH   1   4
BRANCH   1  17
ATOM     17  C   UNL     1      12.777 -10.180  -3.217  0.00  0.00    +0.000 C 
ATOM     18  C   UNL     1      13.106  -9.528  -4.348  0.00  0.00    +0.000 C 
ATOM     19  H   UNL     1      13.584 -10.480  -2.548  0.00  0.00    +0.000 HD
BRANCH  18  20
ATOM     20  C   UNL     1      14.550  -9.254  -4.673  0.00  0.00    +0.000 C 
ATOM     21  H   UNL     1      15.200  -9.687  -3.906  0.00  0.00    +0.000 HD
ATOM     22  H   UNL     1      14.732  -8.174  -4.712  0.00  0.00    +0.000 HD
ATOM     23  H   UNL     1      14.850  -9.675  -5.639  0.00  0.00    +0.000 HD
ENDBRANCH  18  20
BRANCH  18  24
ATOM     24  C   UNL     1      12.134  -9.033  -5.381  0.00  0.00    +0.000 C 
ATOM     25  H   UNL     1      11.286  -9.723  -5.456  0.00  0.00    +0.000 HD
ATOM     26  H   UNL     1      12.559  -8.934  -6.380  0.00  0.00    +0.000 HD
ATOM     27  H   UNL     1      11.751  -8.049  -5.091  0.00  0.00    +0.000 HD
ENDBRANCH  18  24
ENDBRANCH   1  17
TORSDOF 7
ENDMDL
MODEL 3
REMARK VINA RESULT:    -4.650     13.376     15.022
REMARK INTER + INTRA:          -6.465
REMARK INTER:                  -5.915
REMARK INTRA:                  -0.549
REMARK UNBOUND:                -0.319
REMARK  Name = 638011
REMARK  7 active torsions:
REMARK  status: ('A' for Active; 'I' for Inactive)
REMARK    1  A    between atoms: C_2  and  C_3
REMARK    2  A    between atoms: C_2  and  C_4
REMARK    3  A    between atoms: C_3  and  C_5
REMARK    4  A    between atoms: C_4  and  C_7
REMARK    5  A    between atoms: C_6  and  C_9
REMARK    6  A    between atoms: C_6  and  C_10
REMARK    7  A    between atoms: C_8  and  C_11
REMARK                            x       y       z     vdW  Elec       q    Type
REMARK                         _______ _______ _______ _____ _____    ______ ____
ROOT
ATOM      1  C   UNL     1      -3.519  -6.713  -9.613  0.00  0.00    +0.000 C 
ATOM      2  H   UNL     1      -3.515  -6.435  -8.556  0.00  0.00    +0.000 HD
ATOM      3  H   UNL     1      -2.926  -5.946 -10.127  0.00  0.00    +0.000 HD
ENDROOT
BRANCH   1   4
ATOM      4  C   UNL     1      -2.808  -8.063  -9.788  0.00  0.00    +0.000 C 
ATOM      5  H   UNL     1      -1.823  -8.017  -9.309  0.00  0.00    +0.000 HD
ATOM      6  H   UNL     1      -2.617  -8.231 -10.856  0.00  0.00    +0.000 HD
BRANCH   4   7
ATOM      7  C   UNL     1      -3.579  -9.238  -9.219  0.00  0.00    +0.000 C 
ATOM      8  C   UNL     1      -3.938  -9.395  -7.932  0.00  0.00    +0.000 C 
ATOM      9  H   UNL     1      -3.701  -8.619  -7.210  0.00  0.00    +0.000 HD
BRANCH   7  10
ATOM     10  C   UNL     1      -3.986 -10.278 -10.233  0.00  0.00    +0.000 C 
ATOM     11  H   UNL     1      -3.985 -11.297  -9.833  0.00  0.00    +0.000 HD
ATOM     12  H   UNL     1      -3.329 -10.240 -11.106  0.00  0.00    +0.000 HD
ATOM     13  H   UNL     1      -5.012 -10.098 -10.572  0.00  0.00    +0.000 HD
ENDBRANCH   7  10
BRANCH   8  15
ATOM     14  O   UNL     1      -5.195 -10.516  -6.273  0.00  0.00    +0.000 OA
ATOM     15  C   UNL     1      -4.722 -10.532  -7.403  0.00  0.00    +0.000 C 
ATOM     16  H   UNL     1      -4.880 -11.382  -8.086  0.00  0.00    +0.000 HD
ENDBRANCH   8  15
ENDBRANCH   4   7
ENDBRANCH   1   4
BRANCH   1  17
ATOM     17  C   UNL     1      -4.899  -6.702 -10.211  0.00  0.00    +0.000 C 
ATOM     18  C   UNL     1      -6.062  -6.393  -9.608  0.00  0.00    +0.000 C 
ATOM     19  H   UNL     1      -4.926  -6.959 -11.269  0.00  0.00    +0.000 HD
BRANCH  18  20
ATOM     20  C   UNL     1      -7.353  -6.431 -10.383  0.00  0.00    +0.000 C 
ATOM     21  H   UNL     1      -7.998  -5.598 -10.083  0.00  0.00    +0.000 HD
ATOM     22  H   UNL     1      -7.884  -7.369 -10.189  0.00  0.00    +0.000 HD
ATOM     23  H   UNL     1      -7.195  -6.357 -11.464  0.00  0.00    +0.000 HD
ENDBRANCH  18  20
BRANCH  18  24
ATOM     24  C   UNL     1      -6.218  -6.008  -8.164  0.00  0.00    +0.000 C 
ATOM     25  H   UNL     1      -5.507  -5.215  -7.910  0.00  0.00    +0.000 HD
ATOM     26  H   UNL     1      -6.050  -6.828  -7.465  0.00  0.00    +0.000 HD
ATOM     27  H   UNL     1      -7.231  -5.630  -7.986  0.00  0.00    +0.000 HD
ENDBRANCH  18  24
ENDBRANCH   1  17
TORSDOF 7
ENDMDL
MODEL 4
REMARK VINA RESULT:    -4.616      3.480      4.920
REMARK INTER + INTRA:          -6.420
REMARK INTER:                  -6.099
REMARK INTRA:                  -0.321
REMARK UNBOUND:                -0.319
REMARK  Name = 638011
REMARK  7 active torsions:
REMARK  status: ('A' for Active; 'I' for Inactive)
REMARK    1  A    between atoms: C_2  and  C_3
REMARK    2  A    between atoms: C_2  and  C_4
REMARK    3  A    between atoms: C_3  and  C_5
REMARK    4  A    between atoms: C_4  and  C_7
REMARK    5  A    between atoms: C_6  and  C_9
REMARK    6  A    between atoms: C_6  and  C_10
REMARK    7  A    between atoms: C_8  and  C_11
REMARK                            x       y       z     vdW  Elec       q    Type
REMARK                         _______ _______ _______ _____ _____    ______ ____
ROOT
ATOM      1  C   UNL     1       8.108 -10.341  -0.578  0.00  0.00    +0.000 C 
ATOM      2  H   UNL     1       7.637  -9.447  -0.163  0.00  0.00    +0.000 HD
ATOM      3  H   UNL     1       8.027 -10.245  -1.668  0.00  0.00    +0.000 HD
ENDROOT
BRANCH   1   4
ATOM      4  C   UNL     1       9.599 -10.352  -0.209  0.00  0.00    +0.000 C 
ATOM      5  H   UNL     1       9.937 -11.390  -0.106  0.00  0.00    +0.000 HD
ATOM      6  H   UNL     1       9.726  -9.893   0.780  0.00  0.00    +0.000 HD
BRANCH   4   7
ATOM      7  C   UNL     1      10.482  -9.643  -1.216  0.00  0.00    +0.000 C 
ATOM      8  C   UNL     1      11.265 -10.237  -2.134  0.00  0.00    +0.000 C 
ATOM      9  H   UNL     1      11.270 -11.321  -2.214  0.00  0.00    +0.000 HD
BRANCH   7  10
ATOM     10  C   UNL     1      10.415  -8.137  -1.166  0.00  0.00    +0.000 C 
ATOM     11  H   UNL     1       9.532  -7.759  -0.642  0.00  0.00    +0.000 HD
ATOM     12  H   UNL     1      10.433  -7.718  -2.177  0.00  0.00    +0.000 HD
ATOM     13  H   UNL     1      11.274  -7.735  -0.617  0.00  0.00    +0.000 HD
ENDBRANCH   7  10
BRANCH   8  15
ATOM     14  O   UNL     1      13.312  -9.647  -3.161  0.00  0.00    +0.000 OA
ATOM     15  C   UNL     1      12.093  -9.527  -3.132  0.00  0.00    +0.000 C 
ATOM     16  H   UNL     1      11.555  -8.904  -3.865  0.00  0.00    +0.000 HD
ENDBRANCH   8  15
ENDBRANCH   4   7
ENDBRANCH   1   4
BRANCH   1  17
ATOM     17  C   UNL     1       7.403 -11.608  -0.177  0.00  0.00    +0.000 C 
ATOM     18  C   UNL     1       7.563 -12.845  -0.684  0.00  0.00    +0.000 C 
ATOM     19  H   UNL     1       6.696 -11.482   0.643  0.00  0.00    +0.000 HD
BRANCH  18  20
ATOM     20  C   UNL     1       6.765 -13.999  -0.139  0.00  0.00    +0.000 C 
ATOM     21  H   UNL     1       7.431 -14.827   0.126  0.00  0.00    +0.000 HD
ATOM     22  H   UNL     1       6.051 -14.354  -0.890  0.00  0.00    +0.000 HD
ATOM     23  H   UNL     1       6.197 -13.729   0.757  0.00  0.00    +0.000 HD
ENDBRANCH  18  20
BRANCH  18  24
ATOM     24  C   UNL     1       8.494 -13.210  -1.806  0.00  0.00    +0.000 C 
ATOM     25  H   UNL     1       8.636 -14.295  -1.835  0.00  0.00    +0.000 HD
ATOM     26  H   UNL     1       9.483 -12.757  -1.728  0.00  0.00    +0.000 HD
ATOM     27  H   UNL     1       8.066 -12.894  -2.764  0.00  0.00    +0.000 HD
ENDBRANCH  18  24
ENDBRANCH   1  17
TORSDOF 7
ENDMDL
MODEL 5
REMARK VINA RESULT:    -4.555      5.247      7.414
REMARK INTER + INTRA:          -6.339
REMARK INTER:                  -6.069
REMARK INTRA:                  -0.270
REMARK UNBOUND:                -0.319
REMARK  Name = 638011
REMARK  7 active torsions:
REMARK  status: ('A' for Active; 'I' for Inactive)
REMARK    1  A    between atoms: C_2  and  C_3
REMARK    2  A    between atoms: C_2  and  C_4
REMARK    3  A    between atoms: C_3  and  C_5
REMARK    4  A    between atoms: C_4  and  C_7
REMARK    5  A    between atoms: C_6  and  C_9
REMARK    6  A    between atoms: C_6  and  C_10
REMARK    7  A    between atoms: C_8  and  C_11
REMARK                            x       y       z     vdW  Elec       q    Type
REMARK                         _______ _______ _______ _____ _____    ______ ____
ROOT
ATOM      1  C   UNL     1      11.448  -9.365  -2.237  0.00  0.00    +0.000 C 
ATOM      2  H   UNL     1      11.715  -8.665  -1.441  0.00  0.00    +0.000 HD
ATOM      3  H   UNL     1      10.934  -8.768  -3.001  0.00  0.00    +0.000 HD
ENDROOT
BRANCH   1   4
ATOM      4  C   UNL     1      12.727  -9.942  -2.861  0.00  0.00    +0.000 C 
ATOM      5  H   UNL     1      12.701 -11.036  -2.789  0.00  0.00    +0.000 HD
ATOM      6  H   UNL     1      13.591  -9.620  -2.266  0.00  0.00    +0.000 HD
BRANCH   4   7
ATOM      7  C   UNL     1      12.931  -9.547  -4.310  0.00  0.00    +0.000 C 
ATOM      8  C   UNL     1      11.960  -9.370  -5.223  0.00  0.00    +0.000 C 
ATOM      9  H   UNL     1      10.920  -9.479  -4.929  0.00  0.00    +0.000 HD
BRANCH   7  10
ATOM     10  C   UNL     1      14.368  -9.311  -4.704  0.00  0.00    +0.000 C 
ATOM     11  H   UNL     1      14.479  -8.885  -5.706  0.00  0.00    +0.000 HD
ATOM     12  H   UNL     1      14.939 -10.242  -4.649  0.00  0.00    +0.000 HD
ATOM     13  H   UNL     1      14.834  -8.586  -4.027  0.00  0.00    +0.000 HD
ENDBRANCH   7  10
BRANCH   8  15
ATOM     14  O   UNL     1      12.191  -9.758  -7.544  0.00  0.00    +0.000 OA
ATOM     15  C   UNL     1      12.178  -8.949  -6.624  0.00  0.00    +0.000 C 
ATOM     16  H   UNL     1      12.303  -7.869  -6.800  0.00  0.00    +0.000 HD
ENDBRANCH   8  15
ENDBRANCH   4   7
ENDBRANCH   1   4
BRANCH   1  17
ATOM     17  C   UNL     1      10.495 -10.433  -1.775  0.00  0.00    +0.000 C 
ATOM     18  C   UNL     1       9.340 -10.281  -1.101  0.00  0.00    +0.000 C 
ATOM     19  H   UNL     1      10.793 -11.444  -2.054  0.00  0.00    +0.000 HD
BRANCH  18  20
ATOM     20  C   UNL     1       8.512 -11.483  -0.732  0.00  0.00    +0.000 C 
ATOM     21  H   UNL     1       7.523 -11.419  -1.198  0.00  0.00    +0.000 HD
ATOM     22  H   UNL     1       8.381 -11.534   0.354  0.00  0.00    +0.000 HD
ATOM     23  H   UNL     1       8.971 -12.424  -1.055  0.00  0.00    +0.000 HD
ENDBRANCH  18  20
BRANCH  18  24
ATOM     24  C   UNL     1       8.767  -8.970  -0.641  0.00  0.00    +0.000 C 
ATOM     25  H   UNL     1       7.940  -9.147   0.054  0.00  0.00    +0.000 HD
ATOM     26  H   UNL     1       8.382  -8.346  -1.449  0.00  0.00    +0.000 HD
ATOM     27  H   UNL     1       9.536  -8.390  -0.119  0.00  0.00    +0.000 HD
ENDBRANCH  18  24
ENDBRANCH   1  17
TORSDOF 7
ENDMDL
MODEL 6
REMARK VINA RESULT:    -4.553      2.329      5.682
REMARK INTER + INTRA:          -6.336
REMARK INTER:                  -6.129
REMARK INTRA:                  -0.207
REMARK UNBOUND:                -0.319
REMARK  Name = 638011
REMARK  7 active torsions:
REMARK  status: ('A' for Active; 'I' for Inactive)
REMARK    1  A    between atoms: C_2  and  C_3
REMARK    2  A    between atoms: C_2  and  C_4
REMARK    3  A    between atoms: C_3  and  C_5
REMARK    4  A    between atoms: C_4  and  C_7
REMARK    5  A    between atoms: C_6  and  C_9
REMARK    6  A    between atoms: C_6  and  C_10
REMARK    7  A    between atoms: C_8  and  C_11
REMARK                            x       y       z     vdW  Elec       q    Type
REMARK                         _______ _______ _______ _____ _____    ______ ____
ROOT
ATOM      1  C   UNL     1       7.916 -10.979  -0.430  0.00  0.00    +0.000 C 
ATOM      2  H   UNL     1       7.132 -10.333  -0.833  0.00  0.00    +0.000 HD
ATOM      3  H   UNL     1       8.053 -10.670   0.614  0.00  0.00    +0.000 HD
ENDROOT
BRANCH   1   4
ATOM      4  C   UNL     1       7.433 -12.436  -0.438  0.00  0.00    +0.000 C 
ATOM      5  H   UNL     1       8.100 -13.041   0.189  0.00  0.00    +0.000 HD
ATOM      6  H   UNL     1       7.527 -12.839  -1.455  0.00  0.00    +0.000 HD
BRANCH   4   7
ATOM      7  C   UNL     1       6.008 -12.610   0.049  0.00  0.00    +0.000 C 
ATOM      8  C   UNL     1       5.564 -12.362   1.294  0.00  0.00    +0.000 C 
ATOM      9  H   UNL     1       6.251 -11.971   2.040  0.00  0.00    +0.000 HD
BRANCH   7  10
ATOM     10  C   UNL     1       5.032 -13.071  -1.005  0.00  0.00    +0.000 C 
ATOM     11  H   UNL     1       5.395 -12.925  -2.027  0.00  0.00    +0.000 HD
ATOM     12  H   UNL     1       4.074 -12.556  -0.893  0.00  0.00    +0.000 HD
ATOM     13  H   UNL     1       4.851 -14.148  -0.911  0.00  0.00    +0.000 HD
ENDBRANCH   7  10
BRANCH   8  15
ATOM     14  O   UNL     1       3.421 -11.534   1.851  0.00  0.00    +0.000 OA
ATOM     15  C   UNL     1       4.162 -12.503   1.739  0.00  0.00    +0.000 C 
ATOM     16  H   UNL     1       3.810 -13.528   1.941  0.00  0.00    +0.000 HD
ENDBRANCH   8  15
ENDBRANCH   4   7
ENDBRANCH   1   4
BRANCH   1  17
ATOM     17  C   UNL     1       9.233 -10.801  -1.136  0.00  0.00    +0.000 C 
ATOM     18  C   UNL     1       9.958  -9.674  -1.269  0.00  0.00    +0.000 C 
ATOM     19  H   UNL     1       9.635 -11.719  -1.564  0.00  0.00    +0.000 HD
BRANCH  18  20
ATOM     20  C   UNL     1      11.268  -9.698  -2.010  0.00  0.00    +0.000 C 
ATOM     21  H   UNL     1      12.057  -9.248  -1.398  0.00  0.00    +0.000 HD
ATOM     22  H   UNL     1      11.186  -9.129  -2.943  0.00  0.00    +0.000 HD
ATOM     23  H   UNL     1      11.586 -10.714  -2.268  0.00  0.00    +0.000 HD
ENDBRANCH  18  20
BRANCH  18  24
ATOM     24  C   UNL     1       9.569  -8.322  -0.741  0.00  0.00    +0.000 C 
ATOM     25  H   UNL     1      10.439  -7.658  -0.741  0.00  0.00    +0.000 HD
ATOM     26  H   UNL     1       9.174  -8.339   0.275  0.00  0.00    +0.000 HD
ATOM     27  H   UNL     1       8.799  -7.878  -1.382  0.00  0.00    +0.000 HD
ENDBRANCH  18  24
ENDBRANCH   1  17
TORSDOF 7
ENDMDL
MODEL 7
REMARK VINA RESULT:    -4.327     23.816     24.954
REMARK INTER + INTRA:          -6.037
REMARK INTER:                  -5.553
REMARK INTRA:                  -0.485
REMARK UNBOUND:                -0.319
REMARK  Name = 638011
REMARK  7 active torsions:
REMARK  status: ('A' for Active; 'I' for Inactive)
REMARK    1  A    between atoms: C_2  and  C_3
REMARK    2  A    between atoms: C_2  and  C_4
REMARK    3  A    between atoms: C_3  and  C_5
REMARK    4  A    between atoms: C_4  and  C_7
REMARK    5  A    between atoms: C_6  and  C_9
REMARK    6  A    between atoms: C_6  and  C_10
REMARK    7  A    between atoms: C_8  and  C_11
REMARK                            x       y       z     vdW  Elec       q    Type
REMARK                         _______ _______ _______ _____ _____    ______ ____
ROOT
ATOM      1  C   UNL     1       8.880  13.228  -2.313  0.00  0.00    +0.000 C 
ATOM      2  H   UNL     1       9.784  13.704  -1.925  0.00  0.00    +0.000 HD
ATOM      3  H   UNL     1       8.254  14.043  -2.700  0.00  0.00    +0.000 HD
ENDROOT
BRANCH   1   4
ATOM      4  C   UNL     1       9.250  12.311  -3.488  0.00  0.00    +0.000 C 
ATOM      5  H   UNL     1       9.027  11.271  -3.217  0.00  0.00    +0.000 HD
ATOM      6  H   UNL     1      10.334  12.356  -3.649  0.00  0.00    +0.000 HD
BRANCH   4   7
ATOM      7  C   UNL     1       8.529  12.650  -4.778  0.00  0.00    +0.000 C 
ATOM      8  C   UNL     1       7.336  13.263  -4.877  0.00  0.00    +0.000 C 
ATOM      9  H   UNL     1       6.824  13.588  -3.976  0.00  0.00    +0.000 HD
BRANCH   7  10
ATOM     10  C   UNL     1       9.274  12.276  -6.035  0.00  0.00    +0.000 C 
ATOM     11  H   UNL     1       8.817  12.675  -6.945  0.00  0.00    +0.000 HD
ATOM     12  H   UNL     1       9.354  11.189  -6.125  0.00  0.00    +0.000 HD
ATOM     13  H   UNL     1      10.289  12.689  -6.013  0.00  0.00    +0.000 HD
ENDBRANCH   7  10
BRANCH   8  15
ATOM     14  O   UNL     1       5.693  12.995  -6.556  0.00  0.00    +0.000 OA
ATOM     15  C   UNL     1       6.666  13.617  -6.146  0.00  0.00    +0.000 C 
ATOM     16  H   UNL     1       7.072  14.483  -6.692  0.00  0.00    +0.000 HD
ENDBRANCH   8  15
ENDBRANCH   4   7
ENDBRANCH   1   4
BRANCH   1  17
ATOM     17  C   UNL     1       8.095  12.516  -1.246  0.00  0.00    +0.000 C 
ATOM     18  C   UNL     1       6.822  12.733  -0.866  0.00  0.00    +0.000 C 
ATOM     19  H   UNL     1       8.644  11.715  -0.751  0.00  0.00    +0.000 HD
BRANCH  18  20
ATOM     20  C   UNL     1       6.203  11.903   0.226  0.00  0.00    +0.000 C 
ATOM     21  H   UNL     1       6.172  12.471   1.163  0.00  0.00    +0.000 HD
ATOM     22  H   UNL     1       6.790  10.994   0.391  0.00  0.00    +0.000 HD
ATOM     23  H   UNL     1       5.178  11.597  -0.010  0.00  0.00    +0.000 HD
ENDBRANCH  18  20
BRANCH  18  24
ATOM     24  C   UNL     1       5.912  13.784  -1.437  0.00  0.00    +0.000 C 
ATOM     25  H   UNL     1       6.421  14.321  -2.243  0.00  0.00    +0.000 HD
ATOM     26  H   UNL     1       5.581  14.528  -0.711  0.00  0.00    +0.000 HD
ATOM     27  H   UNL     1       5.014  13.313  -1.852  0.00  0.00    +0.000 HD
ENDBRANCH  18  24
ENDBRANCH   1  17
TORSDOF 7
ENDMDL
MODEL 8
REMARK VINA RESULT:    -4.229     15.340     18.288
REMARK INTER + INTRA:          -5.908
REMARK INTER:                  -5.554
REMARK INTRA:                  -0.355
REMARK UNBOUND:                -0.319
REMARK  Name = 638011
REMARK  7 active torsions:
REMARK  status: ('A' for Active; 'I' for Inactive)
REMARK    1  A    between atoms: C_2  and  C_3
REMARK    2  A    between atoms: C_2  and  C_4
REMARK    3  A    between atoms: C_3  and  C_5
REMARK    4  A    between atoms: C_4  and  C_7
REMARK    5  A    between atoms: C_6  and  C_9
REMARK    6  A    between atoms: C_6  and  C_10
REMARK    7  A    between atoms: C_8  and  C_11
REMARK                            x       y       z     vdW  Elec       q    Type
REMARK                         _______ _______ _______ _____ _____    ______ ____
ROOT
ATOM      1  C   UNL     1     -11.622 -14.992   6.878  0.00  0.00    +0.000 C 
ATOM      2  H   UNL     1     -11.266 -14.117   6.328  0.00  0.00    +0.000 HD
ATOM      3  H   UNL     1     -12.462 -15.391   6.296  0.00  0.00    +0.000 HD
ENDROOT
BRANCH   1   4
ATOM      4  C   UNL     1     -10.517 -16.057   6.915  0.00  0.00    +0.000 C 
ATOM      5  H   UNL     1     -10.427 -16.518   5.923  0.00  0.00    +0.000 HD
ATOM      6  H   UNL     1     -10.818 -16.863   7.597  0.00  0.00    +0.000 HD
BRANCH   4   7
ATOM      7  C   UNL     1      -9.162 -15.519   7.332  0.00  0.00    +0.000 C 
ATOM      8  C   UNL     1      -8.578 -14.404   6.858  0.00  0.00    +0.000 C 
ATOM      9  H   UNL     1      -9.104 -13.788   6.134  0.00  0.00    +0.000 HD
BRANCH   7  10
ATOM     10  C   UNL     1      -8.464 -16.323   8.400  0.00  0.00    +0.000 C 
ATOM     11  H   UNL     1      -7.515 -16.754   8.067  0.00  0.00    +0.000 HD
ATOM     12  H   UNL     1      -9.112 -17.127   8.760  0.00  0.00    +0.000 HD
ATOM     13  H   UNL     1      -8.210 -15.684   9.253  0.00  0.00    +0.000 HD
ENDBRANCH   7  10
BRANCH   8  15
ATOM     14  O   UNL     1      -6.285 -13.899   6.578  0.00  0.00    +0.000 OA
ATOM     15  C   UNL     1      -7.271 -13.875   7.305  0.00  0.00    +0.000 C 
ATOM     16  H   UNL     1      -7.236 -13.436   8.315  0.00  0.00    +0.000 HD
ENDBRANCH   8  15
ENDBRANCH   4   7
ENDBRANCH   1   4
BRANCH   1  17
ATOM     17  C   UNL     1     -12.138 -14.645   8.248  0.00  0.00    +0.000 C 
ATOM     18  C   UNL     1     -13.379 -14.828   8.739  0.00  0.00    +0.000 C 
ATOM     19  H   UNL     1     -11.387 -14.215   8.910  0.00  0.00    +0.000 HD
BRANCH  18  20
ATOM     20  C   UNL     1     -13.704 -14.421  10.151  0.00  0.00    +0.000 C 
ATOM     21  H   UNL     1     -13.817 -15.308  10.784  0.00  0.00    +0.000 HD
ATOM     22  H   UNL     1     -14.642 -13.855  10.176  0.00  0.00    +0.000 HD
ATOM     23  H   UNL     1     -12.926 -13.792  10.596  0.00  0.00    +0.000 HD
ENDBRANCH  18  20
BRANCH  18  24
ATOM     24  C   UNL     1     -14.536 -15.412   7.980  0.00  0.00    +0.000 C 
ATOM     25  H   UNL     1     -15.047 -16.160   8.595  0.00  0.00    +0.000 HD
ATOM     26  H   UNL     1     -14.255 -15.900   7.046  0.00  0.00    +0.000 HD
ATOM     27  H   UNL     1     -15.256 -14.624   7.731  0.00  0.00    +0.000 HD
ENDBRANCH  18  24
ENDBRANCH   1  17
TORSDOF 7
ENDMDL
MODEL 9
REMARK VINA RESULT:    -4.208     23.321     23.864
REMARK INTER + INTRA:          -5.880
REMARK INTER:                  -5.530
REMARK INTRA:                  -0.350
REMARK UNBOUND:                -0.319
REMARK  Name = 638011
REMARK  7 active torsions:
REMARK  status: ('A' for Active; 'I' for Inactive)
REMARK    1  A    between atoms: C_2  and  C_3
REMARK    2  A    between atoms: C_2  and  C_4
REMARK    3  A    between atoms: C_3  and  C_5
REMARK    4  A    between atoms: C_4  and  C_7
REMARK    5  A    between atoms: C_6  and  C_9
REMARK    6  A    between atoms: C_6  and  C_10
REMARK    7  A    between atoms: C_8  and  C_11
REMARK                            x       y       z     vdW  Elec       q    Type
REMARK                         _______ _______ _______ _____ _____    ______ ____
ROOT
ATOM      1  C   UNL     1      16.683   8.752   0.993  0.00  0.00    +0.000 C 
ATOM      2  H   UNL     1      16.457   8.155   0.106  0.00  0.00    +0.000 HD
ATOM      3  H   UNL     1      16.662   8.053   1.838  0.00  0.00    +0.000 HD
ENDROOT
BRANCH   1   4
ATOM      4  C   UNL     1      18.105   9.319   0.877  0.00  0.00    +0.000 C 
ATOM      5  H   UNL     1      18.254  10.082   1.652  0.00  0.00    +0.000 HD
ATOM      6  H   UNL     1      18.206   9.841  -0.084  0.00  0.00    +0.000 HD
BRANCH   4   7
ATOM      7  C   UNL     1      19.193   8.271   1.003  0.00  0.00    +0.000 C 
ATOM      8  C   UNL     1      20.044   7.898   0.030  0.00  0.00    +0.000 C 
ATOM      9  H   UNL     1      20.002   8.389  -0.938  0.00  0.00    +0.000 HD
BRANCH   7  10
ATOM     10  C   UNL     1      19.313   7.645   2.370  0.00  0.00    +0.000 C 
ATOM     11  H   UNL     1      18.365   7.259   2.755  0.00  0.00    +0.000 HD
ATOM     12  H   UNL     1      19.720   8.365   3.087  0.00  0.00    +0.000 HD
ATOM     13  H   UNL     1      19.988   6.782   2.336  0.00  0.00    +0.000 HD
ENDBRANCH   7  10
BRANCH   8  15
ATOM     14  O   UNL     1      22.285   7.231   0.383  0.00  0.00    +0.000 OA
ATOM     15  C   UNL     1      21.123   6.898   0.184  0.00  0.00    +0.000 C 
ATOM     16  H   UNL     1      20.824   5.839   0.135  0.00  0.00    +0.000 HD
ENDBRANCH   8  15
ENDBRANCH   4   7
ENDBRANCH   1   4
BRANCH   1  17
ATOM     17  C   UNL     1      15.653   9.817   1.253  0.00  0.00    +0.000 C 
ATOM     18  C   UNL     1      15.231  10.291   2.440  0.00  0.00    +0.000 C 
ATOM     19  H   UNL     1      15.231  10.257   0.350  0.00  0.00    +0.000 HD
BRANCH  18  20
ATOM     20  C   UNL     1      14.189  11.376   2.498  0.00  0.00    +0.000 C 
ATOM     21  H   UNL     1      13.493  11.278   1.658  0.00  0.00    +0.000 HD
ATOM     22  H   UNL     1      14.664  12.361   2.442  0.00  0.00    +0.000 HD
ATOM     23  H   UNL     1      13.601  11.344   3.421  0.00  0.00    +0.000 HD
ENDBRANCH  18  20
BRANCH  18  24
ATOM     24  C   UNL     1      15.704   9.815   3.785  0.00  0.00    +0.000 C 
ATOM     25  H   UNL     1      14.963  10.065   4.551  0.00  0.00    +0.000 HD
ATOM     26  H   UNL     1      16.654  10.249   4.101  0.00  0.00    +0.000 HD
ATOM     27  H   UNL     1      15.831   8.727   3.772  0.00  0.00    +0.000 HD
ENDBRANCH  18  24
ENDBRANCH   1  17
TORSDOF 7
ENDMDL
MODEL 10
REMARK VINA RESULT:    -4.179      3.259      5.964
REMARK INTER + INTRA:          -5.842
REMARK INTER:                  -5.523
REMARK INTRA:                  -0.319
REMARK UNBOUND:                -0.319
REMARK  Name = 638011
REMARK  7 active torsions:
REMARK  status: ('A' for Active; 'I' for Inactive)
REMARK    1  A    between atoms: C_2  and  C_3
REMARK    2  A    between atoms: C_2  and  C_4
REMARK    3  A    between atoms: C_3  and  C_5
REMARK    4  A    between atoms: C_4  and  C_7
REMARK    5  A    between atoms: C_6  and  C_9
REMARK    6  A    between atoms: C_6  and  C_10
REMARK    7  A    between atoms: C_8  and  C_11
REMARK                            x       y       z     vdW  Elec       q    Type
REMARK                         _______ _______ _______ _____ _____    ______ ____
ROOT
ATOM      1  C   UNL     1       5.051 -13.155   0.232  0.00  0.00    +0.000 C 
ATOM      2  H   UNL     1       5.318 -14.105   0.701  0.00  0.00    +0.000 HD
ATOM      3  H   UNL     1       4.290 -13.396  -0.521  0.00  0.00    +0.000 HD
ENDROOT
BRANCH   1   4
ATOM      4  C   UNL     1       4.411 -12.231   1.279  0.00  0.00    +0.000 C 
ATOM      5  H   UNL     1       3.760 -11.508   0.772  0.00  0.00    +0.000 HD
ATOM      6  H   UNL     1       5.199 -11.640   1.764  0.00  0.00    +0.000 HD
BRANCH   4   7
ATOM      7  C   UNL     1       3.605 -12.966   2.331  0.00  0.00    +0.000 C 
ATOM      8  C   UNL     1       3.871 -14.193   2.813  0.00  0.00    +0.000 C 
ATOM      9  H   UNL     1       4.751 -14.727   2.465  0.00  0.00    +0.000 HD
BRANCH   7  10
ATOM     10  C   UNL     1       2.430 -12.195   2.880  0.00  0.00    +0.000 C 
ATOM     11  H   UNL     1       1.580 -12.152   2.192  0.00  0.00    +0.000 HD
ATOM     12  H   UNL     1       2.728 -11.175   3.140  0.00  0.00    +0.000 HD
ATOM     13  H   UNL     1       2.048 -12.678   3.786  0.00  0.00    +0.000 HD
ENDBRANCH   7  10
BRANCH   8  15
ATOM     14  O   UNL     1       2.926 -16.093   3.857  0.00  0.00    +0.000 OA
ATOM     15  C   UNL     1       3.093 -14.879   3.866  0.00  0.00    +0.000 C 
ATOM     16  H   UNL     1       2.691 -14.245   4.674  0.00  0.00    +0.000 HD
ENDBRANCH   8  15
ENDBRANCH   4   7
ENDBRANCH   1   4
BRANCH   1  17
ATOM     17  C   UNL     1       6.210 -12.511  -0.478  0.00  0.00    +0.000 C 
ATOM     18  C   UNL     1       7.521 -12.607  -0.184  0.00  0.00    +0.000 C 
ATOM     19  H   UNL     1       5.925 -11.918  -1.346  0.00  0.00    +0.000 HD
BRANCH  18  20
ATOM     20  C   UNL     1       8.542 -11.890  -1.026  0.00  0.00    +0.000 C 
ATOM     21  H   UNL     1       9.521 -12.371  -0.925  0.00  0.00    +0.000 HD
ATOM     22  H   UNL     1       8.633 -10.847  -0.705  0.00  0.00    +0.000 HD
ATOM     23  H   UNL     1       8.281 -11.888  -2.090  0.00  0.00    +0.000 HD
ENDBRANCH  18  20
BRANCH  18  24
ATOM     24  C   UNL     1       8.100 -13.383   0.964  0.00  0.00    +0.000 C 
ATOM     25  H   UNL     1       7.862 -12.885   1.910  0.00  0.00    +0.000 HD
ATOM     26  H   UNL     1       9.184 -13.496   0.923  0.00  0.00    +0.000 HD
ATOM     27  H   UNL     1       7.669 -14.391   0.990  0.00  0.00    +0.000 HD
ENDBRANCH  18  24
ENDBRANCH   1  17
TORSDOF 7
ENDMDL
