MODEL 1
REMARK VINA RESULT:    -5.843      0.000      0.000
REMARK INTER + INTRA:          -5.843
REMARK INTER:                  -5.843
REMARK INTRA:                   0.000
REMARK UNBOUND:                 0.000
REMARK  Name = 323
REMARK  0 active torsions:
REMARK  status: ('A' for Active; 'I' for Inactive)
REMARK                            x       y       z     vdW  Elec       q    Type
REMARK                         _______ _______ _______ _____ _____    ______ ____
ROOT
ATOM      1  O   UNL     1       2.129  -7.121  16.109  0.00  0.00    +0.000 OA
ATOM      2  O   UNL     1       0.866  -8.886  16.839  0.00  0.00    +0.000 OA
ATOM      3  C   UNL     1       1.064  -4.955  15.787  0.00  0.00    +0.000 A 
ATOM      4  C   UNL     1       2.200  -5.760  15.744  0.00  0.00    +0.000 A 
ATOM      5  C   UNL     1       1.173  -3.613  15.419  0.00  0.00    +0.000 A 
ATOM      6  C   UNL     1      -0.195  -5.543  16.214  0.00  0.00    +0.000 A 
ATOM      7  C   UNL     1       3.437  -5.260  15.345  0.00  0.00    +0.000 A 
ATOM      8  C   UNL     1       2.408  -3.097  15.016  0.00  0.00    +0.000 A 
ATOM      9  C   UNL     1       3.537  -3.919  14.979  0.00  0.00    +0.000 A 
ATOM     10  C   UNL     1      -0.253  -6.832  16.557  0.00  0.00    +0.000 A 
ATOM     11  C   UNL     1       0.935  -7.705  16.520  0.00  0.00    +0.000 A 
ATOM     12  H   UNL     1       0.306  -2.956  15.442  0.00  0.00    +0.000 HD
ATOM     13  H   UNL     1      -1.083  -4.920  16.249  0.00  0.00    +0.000 HD
ATOM     14  H   UNL     1       4.314  -5.900  15.317  0.00  0.00    +0.000 HD
ATOM     15  H   UNL     1       2.490  -2.052  14.730  0.00  0.00    +0.000 HD
ATOM     16  H   UNL     1       4.493  -3.511  14.665  0.00  0.00    +0.000 HD
ATOM     17  H   UNL     1      -1.190  -7.278  16.876  0.00  0.00    +0.000 HD
ENDROOT
TORSDOF 0
ENDMDL
MODEL 2
REMARK VINA RESULT:    -5.769     16.065     16.470
REMARK INTER + INTRA:          -5.769
REMARK INTER:                  -5.769
REMARK INTRA:                   0.000
REMARK UNBOUND:                 0.000
REMARK  Name = 323
REMARK  0 active torsions:
REMARK  status: ('A' for Active; 'I' for Inactive)
REMARK                            x       y       z     vdW  Elec       q    Type
REMARK                         _______ _______ _______ _____ _____    ______ ____
ROOT
ATOM      1  O   UNL     1       4.048 -14.148   2.242  0.00  0.00    +0.000 OA
ATOM      2  O   UNL     1       3.027 -14.438   4.271  0.00  0.00    +0.000 OA
ATOM      3  C   UNL     1       3.580 -12.132   0.959  0.00  0.00    +0.000 A 
ATOM      4  C   UNL     1       4.241 -13.351   1.094  0.00  0.00    +0.000 A 
ATOM      5  C   UNL     1       3.797 -11.371  -0.191  0.00  0.00    +0.000 A 
ATOM      6  C   UNL     1       2.688 -11.697   2.021  0.00  0.00    +0.000 A 
ATOM      7  C   UNL     1       5.109 -13.826   0.114  0.00  0.00    +0.000 A 
ATOM      8  C   UNL     1       4.665 -11.835  -1.183  0.00  0.00    +0.000 A 
ATOM      9  C   UNL     1       5.319 -13.061  -1.031  0.00  0.00    +0.000 A 
ATOM     10  C   UNL     1       2.512 -12.458   3.104  0.00  0.00    +0.000 A 
ATOM     11  C   UNL     1       3.199 -13.752   3.271  0.00  0.00    +0.000 A 
ATOM     12  H   UNL     1       3.298 -10.415  -0.329  0.00  0.00    +0.000 HD
ATOM     13  H   UNL     1       2.172 -10.749   1.920  0.00  0.00    +0.000 HD
ATOM     14  H   UNL     1       5.617 -14.779   0.234  0.00  0.00    +0.000 HD
ATOM     15  H   UNL     1       4.831 -11.241  -2.078  0.00  0.00    +0.000 HD
ATOM     16  H   UNL     1       5.992 -13.415  -1.806  0.00  0.00    +0.000 HD
ATOM     17  H   UNL     1       1.847 -12.140   3.900  0.00  0.00    +0.000 HD
ENDROOT
TORSDOF 0
ENDMDL
MODEL 3
REMARK VINA RESULT:    -5.665     16.561     17.183
REMARK INTER + INTRA:          -5.665
REMARK INTER:                  -5.665
REMARK INTRA:                   0.000
REMARK UNBOUND:                 0.000
REMARK  Name = 323
REMARK  0 active torsions:
REMARK  status: ('A' for Active; 'I' for Inactive)
REMARK                            x       y       z     vdW  Elec       q    Type
REMARK                         _______ _______ _______ _____ _____    ______ ____
ROOT
ATOM      1  O   UNL     1       5.665 -13.762   1.409  0.00  0.00    +0.000 OA
ATOM      2  O   UNL     1       7.357 -14.766   0.237  0.00  0.00    +0.000 OA
ATOM      3  C   UNL     1       4.216 -12.173   0.268  0.00  0.00    +0.000 A 
ATOM      4  C   UNL     1       4.577 -12.865   1.422  0.00  0.00    +0.000 A 
ATOM      5  C   UNL     1       3.133 -11.293   0.320  0.00  0.00    +0.000 A 
ATOM      6  C   UNL     1       4.981 -12.391  -0.948  0.00  0.00    +0.000 A 
ATOM      7  C   UNL     1       3.887 -12.701   2.621  0.00  0.00    +0.000 A 
ATOM      8  C   UNL     1       2.431 -11.119   1.516  0.00  0.00    +0.000 A 
ATOM      9  C   UNL     1       2.807 -11.821   2.664  0.00  0.00    +0.000 A 
ATOM     10  C   UNL     1       6.009 -13.243  -0.951  0.00  0.00    +0.000 A 
ATOM     11  C   UNL     1       6.411 -13.987   0.256  0.00  0.00    +0.000 A 
ATOM     12  H   UNL     1       2.824 -10.737  -0.562  0.00  0.00    +0.000 HD
ATOM     13  H   UNL     1       4.703 -11.854  -1.849  0.00  0.00    +0.000 HD
ATOM     14  H   UNL     1       4.180 -13.248   3.511  0.00  0.00    +0.000 HD
ATOM     15  H   UNL     1       1.589 -10.433   1.554  0.00  0.00    +0.000 HD
ATOM     16  H   UNL     1       2.257 -11.681   3.589  0.00  0.00    +0.000 HD
ATOM     17  H   UNL     1       6.585 -13.410  -1.856  0.00  0.00    +0.000 HD
ENDROOT
TORSDOF 0
ENDMDL
MODEL 4
REMARK VINA RESULT:    -5.049     22.945     24.651
REMARK INTER + INTRA:          -5.049
REMARK INTER:                  -5.049
REMARK INTRA:                   0.000
REMARK UNBOUND:                 0.000
REMARK  Name = 323
REMARK  0 active torsions:
REMARK  status: ('A' for Active; 'I' for Inactive)
REMARK                            x       y       z     vdW  Elec       q    Type
REMARK                         _______ _______ _______ _____ _____    ______ ____
ROOT
ATOM      1  O   UNL     1       7.719  14.279   0.840  0.00  0.00    +0.000 OA
ATOM      2  O   UNL     1       8.445  14.393  -1.328  0.00  0.00    +0.000 OA
ATOM      3  C   UNL     1       6.212  12.481   1.491  0.00  0.00    +0.000 A 
ATOM      4  C   UNL     1       6.947  13.618   1.818  0.00  0.00    +0.000 A 
ATOM      5  C   UNL     1       5.459  11.854   2.486  0.00  0.00    +0.000 A 
ATOM      6  C   UNL     1       6.255  11.988   0.125  0.00  0.00    +0.000 A 
ATOM      7  C   UNL     1       6.949  14.142   3.109  0.00  0.00    +0.000 A 
ATOM      8  C   UNL     1       5.452  12.369   3.786  0.00  0.00    +0.000 A 
ATOM      9  C   UNL     1       6.195  13.511   4.096  0.00  0.00    +0.000 A 
ATOM     10  C   UNL     1       6.989  12.620  -0.795  0.00  0.00    +0.000 A 
ATOM     11  C   UNL     1       7.775  13.825  -0.474  0.00  0.00    +0.000 A 
ATOM     12  H   UNL     1       4.874  10.964   2.266  0.00  0.00    +0.000 HD
ATOM     13  H   UNL     1       5.683  11.103  -0.134  0.00  0.00    +0.000 HD
ATOM     14  H   UNL     1       7.528  15.030   3.348  0.00  0.00    +0.000 HD
ATOM     15  H   UNL     1       4.865  11.880   4.558  0.00  0.00    +0.000 HD
ATOM     16  H   UNL     1       6.185  13.906   5.108  0.00  0.00    +0.000 HD
ATOM     17  H   UNL     1       7.025  12.258  -1.817  0.00  0.00    +0.000 HD
ENDROOT
TORSDOF 0
ENDMDL
MODEL 5
REMARK VINA RESULT:    -4.994     21.608     22.990
REMARK INTER + INTRA:          -4.994
REMARK INTER:                  -4.994
REMARK INTRA:                   0.000
REMARK UNBOUND:                 0.000
REMARK  Name = 323
REMARK  0 active torsions:
REMARK  status: ('A' for Active; 'I' for Inactive)
REMARK                            x       y       z     vdW  Elec       q    Type
REMARK                         _______ _______ _______ _____ _____    ______ ____
ROOT
ATOM      1  O   UNL     1     -18.371  -1.820   9.529  0.00  0.00    +0.000 OA
ATOM      2  O   UNL     1     -16.280  -1.068   8.976  0.00  0.00    +0.000 OA
ATOM      3  C   UNL     1     -20.092  -1.904   7.809  0.00  0.00    +0.000 A 
ATOM      4  C   UNL     1     -19.691  -2.111   9.127  0.00  0.00    +0.000 A 
ATOM      5  C   UNL     1     -21.407  -2.204   7.449  0.00  0.00    +0.000 A 
ATOM      6  C   UNL     1     -19.125  -1.385   6.856  0.00  0.00    +0.000 A 
ATOM      7  C   UNL     1     -20.567  -2.606  10.090  0.00  0.00    +0.000 A 
ATOM      8  C   UNL     1     -22.297  -2.702   8.405  0.00  0.00    +0.000 A 
ATOM      9  C   UNL     1     -21.878  -2.902   9.722  0.00  0.00    +0.000 A 
ATOM     10  C   UNL     1     -17.877  -1.113   7.246  0.00  0.00    +0.000 A 
ATOM     11  C   UNL     1     -17.429  -1.322   8.635  0.00  0.00    +0.000 A 
ATOM     12  H   UNL     1     -21.753  -2.056   6.429  0.00  0.00    +0.000 HD
ATOM     13  H   UNL     1     -19.433  -1.223   5.829  0.00  0.00    +0.000 HD
ATOM     14  H   UNL     1     -20.239  -2.762  11.114  0.00  0.00    +0.000 HD
ATOM     15  H   UNL     1     -23.320  -2.934   8.122  0.00  0.00    +0.000 HD
ATOM     16  H   UNL     1     -22.575  -3.289  10.459  0.00  0.00    +0.000 HD
ATOM     17  H   UNL     1     -17.151  -0.723   6.540  0.00  0.00    +0.000 HD
ENDROOT
TORSDOF 0
ENDMDL
MODEL 6
REMARK VINA RESULT:    -4.929     26.195     28.060
REMARK INTER + INTRA:          -4.929
REMARK INTER:                  -4.929
REMARK INTRA:                   0.000
REMARK UNBOUND:                 0.000
REMARK  Name = 323
REMARK  0 active torsions:
REMARK  status: ('A' for Active; 'I' for Inactive)
REMARK                            x       y       z     vdW  Elec       q    Type
REMARK                         _______ _______ _______ _____ _____    ______ ____
ROOT
ATOM      1  O   UNL     1       6.742  13.541  -3.445  0.00  0.00    +0.000 OA
ATOM      2  O   UNL     1       6.050  13.534  -1.263  0.00  0.00    +0.000 OA
ATOM      3  C   UNL     1       8.814  12.406  -4.034  0.00  0.00    +0.000 A 
ATOM      4  C   UNL     1       7.698  13.151  -4.406  0.00  0.00    +0.000 A 
ATOM      5  C   UNL     1       9.739  12.038  -5.014  0.00  0.00    +0.000 A 
ATOM      6  C   UNL     1       8.976  12.037  -2.637  0.00  0.00    +0.000 A 
ATOM      7  C   UNL     1       7.483  13.537  -5.728  0.00  0.00    +0.000 A 
ATOM      8  C   UNL     1       9.536  12.419  -6.343  0.00  0.00    +0.000 A 
ATOM      9  C   UNL     1       8.410  13.167  -6.699  0.00  0.00    +0.000 A 
ATOM     10  C   UNL     1       8.066  12.411  -1.734  0.00  0.00    +0.000 A 
ATOM     11  C   UNL     1       6.876  13.200  -2.103  0.00  0.00    +0.000 A 
ATOM     12  H   UNL     1      10.620  11.456  -4.758  0.00  0.00    +0.000 HD
ATOM     13  H   UNL     1       9.844  11.457  -2.343  0.00  0.00    +0.000 HD
ATOM     14  H   UNL     1       6.608  14.119  -6.002  0.00  0.00    +0.000 HD
ATOM     15  H   UNL     1      10.256  12.132  -7.104  0.00  0.00    +0.000 HD
ATOM     16  H   UNL     1       8.259  13.458  -7.734  0.00  0.00    +0.000 HD
ATOM     17  H   UNL     1       8.181  12.140  -0.689  0.00  0.00    +0.000 HD
ENDROOT
TORSDOF 0
ENDMDL
MODEL 7
REMARK VINA RESULT:    -4.888     25.329     26.619
REMARK INTER + INTRA:          -4.888
REMARK INTER:                  -4.888
REMARK INTRA:                   0.000
REMARK UNBOUND:                 0.000
REMARK  Name = 323
REMARK  0 active torsions:
REMARK  status: ('A' for Active; 'I' for Inactive)
REMARK                            x       y       z     vdW  Elec       q    Type
REMARK                         _______ _______ _______ _____ _____    ______ ____
ROOT
ATOM      1  O   UNL     1      19.205   8.738  -0.004  0.00  0.00    +0.000 OA
ATOM      2  O   UNL     1      21.177   7.667  -0.457  0.00  0.00    +0.000 OA
ATOM      3  C   UNL     1      18.053   8.264   2.088  0.00  0.00    +0.000 A 
ATOM      4  C   UNL     1      18.122   8.946   0.876  0.00  0.00    +0.000 A 
ATOM      5  C   UNL     1      16.966   8.496   2.933  0.00  0.00    +0.000 A 
ATOM      6  C   UNL     1      19.116   7.333   2.429  0.00  0.00    +0.000 A 
ATOM      7  C   UNL     1      17.137   9.852   0.488  0.00  0.00    +0.000 A 
ATOM      8  C   UNL     1      15.970   9.402   2.557  0.00  0.00    +0.000 A 
ATOM      9  C   UNL     1      16.056  10.079   1.337  0.00  0.00    +0.000 A 
ATOM     10  C   UNL     1      20.137   7.142   1.590  0.00  0.00    +0.000 A 
ATOM     11  C   UNL     1      20.233   7.852   0.302  0.00  0.00    +0.000 A 
ATOM     12  H   UNL     1      16.881   7.981   3.887  0.00  0.00    +0.000 HD
ATOM     13  H   UNL     1      19.066   6.799   3.372  0.00  0.00    +0.000 HD
ATOM     14  H   UNL     1      17.206  10.377  -0.460  0.00  0.00    +0.000 HD
ATOM     15  H   UNL     1      15.125   9.581   3.216  0.00  0.00    +0.000 HD
ATOM     16  H   UNL     1      15.279  10.781   1.052  0.00  0.00    +0.000 HD
ATOM     17  H   UNL     1      20.933   6.447   1.838  0.00  0.00    +0.000 HD
ENDROOT
TORSDOF 0
ENDMDL
MODEL 8
REMARK VINA RESULT:    -4.829     25.548     25.764
REMARK INTER + INTRA:          -4.829
REMARK INTER:                  -4.829
REMARK INTRA:                   0.000
REMARK UNBOUND:                 0.000
REMARK  Name = 323
REMARK  0 active torsions:
REMARK  status: ('A' for Active; 'I' for Inactive)
REMARK                            x       y       z     vdW  Elec       q    Type
REMARK                         _______ _______ _______ _____ _____    ______ ____
ROOT
ATOM      1  O   UNL     1      -5.709  -8.631  -7.667  0.00  0.00    +0.000 OA
ATOM      2  O   UNL     1      -7.277  -7.995  -6.123  0.00  0.00    +0.000 OA
ATOM      3  C   UNL     1      -5.022  -7.042  -9.378  0.00  0.00    +0.000 A 
ATOM      4  C   UNL     1      -4.928  -8.302  -8.794  0.00  0.00    +0.000 A 
ATOM      5  C   UNL     1      -4.231  -6.754 -10.493  0.00  0.00    +0.000 A 
ATOM      6  C   UNL     1      -5.940  -6.071  -8.807  0.00  0.00    +0.000 A 
ATOM      7  C   UNL     1      -4.068  -9.279  -9.292  0.00  0.00    +0.000 A 
ATOM      8  C   UNL     1      -3.364  -7.723 -11.004  0.00  0.00    +0.000 A 
ATOM      9  C   UNL     1      -3.283  -8.983 -10.405  0.00  0.00    +0.000 A 
ATOM     10  C   UNL     1      -6.676  -6.390  -7.739  0.00  0.00    +0.000 A 
ATOM     11  C   UNL     1      -6.595  -7.718  -7.103  0.00  0.00    +0.000 A 
ATOM     12  H   UNL     1      -4.279  -5.779 -10.974  0.00  0.00    +0.000 HD
ATOM     13  H   UNL     1      -6.016  -5.088  -9.259  0.00  0.00    +0.000 HD
ATOM     14  H   UNL     1      -4.006 -10.257  -8.825  0.00  0.00    +0.000 HD
ATOM     15  H   UNL     1      -2.750  -7.497 -11.871  0.00  0.00    +0.000 HD
ATOM     16  H   UNL     1      -2.607  -9.732 -10.807  0.00  0.00    +0.000 HD
ATOM     17  H   UNL     1      -7.364  -5.671  -7.308  0.00  0.00    +0.000 HD
ENDROOT
TORSDOF 0
ENDMDL
MODEL 9
REMARK VINA RESULT:    -4.724     26.778     28.705
REMARK INTER + INTRA:          -4.724
REMARK INTER:                  -4.724
REMARK INTRA:                   0.000
REMARK UNBOUND:                 0.000
REMARK  Name = 323
REMARK  0 active torsions:
REMARK  status: ('A' for Active; 'I' for Inactive)
REMARK                            x       y       z     vdW  Elec       q    Type
REMARK                         _______ _______ _______ _____ _____    ______ ____
ROOT
ATOM      1  O   UNL     1       7.509  14.039  -5.416  0.00  0.00    +0.000 OA
ATOM      2  O   UNL     1       8.091  14.260  -7.620  0.00  0.00    +0.000 OA
ATOM      3  C   UNL     1       8.726  12.457  -4.023  0.00  0.00    +0.000 A 
ATOM      4  C   UNL     1       7.727  13.416  -4.170  0.00  0.00    +0.000 A 
ATOM      5  C   UNL     1       8.912  11.862  -2.773  0.00  0.00    +0.000 A 
ATOM      6  C   UNL     1       9.539  12.109  -5.177  0.00  0.00    +0.000 A 
ATOM      7  C   UNL     1       6.913  13.795  -3.105  0.00  0.00    +0.000 A 
ATOM      8  C   UNL     1       8.103  12.232  -1.696  0.00  0.00    +0.000 A 
ATOM      9  C   UNL     1       7.105  13.196  -1.861  0.00  0.00    +0.000 A 
ATOM     10  C   UNL     1       9.325  12.704  -6.353  0.00  0.00    +0.000 A 
ATOM     11  C   UNL     1       8.274  13.723  -6.534  0.00  0.00    +0.000 A 
ATOM     12  H   UNL     1       9.683  11.110  -2.623  0.00  0.00    +0.000 HD
ATOM     13  H   UNL     1      10.318  11.362  -5.067  0.00  0.00    +0.000 HD
ATOM     14  H   UNL     1       6.138  14.545  -3.235  0.00  0.00    +0.000 HD
ATOM     15  H   UNL     1       8.249  11.768  -0.725  0.00  0.00    +0.000 HD
ATOM     16  H   UNL     1       6.480  13.479  -1.020  0.00  0.00    +0.000 HD
ATOM     17  H   UNL     1       9.928  12.449  -7.219  0.00  0.00    +0.000 HD
ENDROOT
TORSDOF 0
ENDMDL
MODEL 10
REMARK VINA RESULT:    -4.684     29.318     31.241
REMARK INTER + INTRA:          -4.684
REMARK INTER:                  -4.684
REMARK INTRA:                   0.000
REMARK UNBOUND:                 0.000
REMARK  Name = 323
REMARK  0 active torsions:
REMARK  status: ('A' for Active; 'I' for Inactive)
REMARK                            x       y       z     vdW  Elec       q    Type
REMARK                         _______ _______ _______ _____ _____    ______ ____
ROOT
ATOM      1  O   UNL     1      11.874  14.611  -6.607  0.00  0.00    +0.000 OA
ATOM      2  O   UNL     1      12.623  15.643  -8.509  0.00  0.00    +0.000 OA
ATOM      3  C   UNL     1       9.872  13.231  -6.719  0.00  0.00    +0.000 A 
ATOM      4  C   UNL     1      10.923  13.776  -5.985  0.00  0.00    +0.000 A 
ATOM      5  C   UNL     1       8.950  12.408  -6.069  0.00  0.00    +0.000 A 
ATOM      6  C   UNL     1       9.774  13.538  -8.136  0.00  0.00    +0.000 A 
ATOM      7  C   UNL     1      11.075  13.522  -4.624  0.00  0.00    +0.000 A 
ATOM      8  C   UNL     1       9.090  12.145  -4.703  0.00  0.00    +0.000 A 
ATOM      9  C   UNL     1      10.150  12.700  -3.983  0.00  0.00    +0.000 A 
ATOM     10  C   UNL     1      10.679  14.330  -8.716  0.00  0.00    +0.000 A 
ATOM     11  C   UNL     1      11.800  14.919  -7.962  0.00  0.00    +0.000 A 
ATOM     12  H   UNL     1       8.118  11.965  -6.611  0.00  0.00    +0.000 HD
ATOM     13  H   UNL     1       8.957  13.115  -8.711  0.00  0.00    +0.000 HD
ATOM     14  H   UNL     1      11.900  13.955  -4.066  0.00  0.00    +0.000 HD
ATOM     15  H   UNL     1       8.371  11.504  -4.200  0.00  0.00    +0.000 HD
ATOM     16  H   UNL     1      10.253  12.491  -2.922  0.00  0.00    +0.000 HD
ATOM     17  H   UNL     1      10.611  14.564  -9.774  0.00  0.00    +0.000 HD
ENDROOT
TORSDOF 0
ENDMDL
