MODEL 1
REMARK VINA RESULT:    -4.214      0.000      0.000
REMARK INTER + INTRA:          -4.214
REMARK INTER:                  -4.214
REMARK INTRA:                   0.000
REMARK UNBOUND:                 0.000
REMARK  Name = 7967
REMARK  0 active torsions:
REMARK  status: ('A' for Active; 'I' for Inactive)
REMARK                            x       y       z     vdW  Elec       q    Type
REMARK                         _______ _______ _______ _____ _____    ______ ____
ROOT
ATOM      1  O   UNL     1       3.509 -11.338  -0.677  0.00  0.00    +0.000 OA
ATOM      2  C   UNL     1       3.403 -12.971   3.083  0.00  0.00    +0.000 C 
ATOM      3  C   UNL     1       2.202 -12.241   2.487  0.00  0.00    +0.000 C 
ATOM      4  C   UNL     1       4.300 -13.535   1.983  0.00  0.00    +0.000 C 
ATOM      5  C   UNL     1       2.631 -11.125   1.545  0.00  0.00    +0.000 C 
ATOM      6  C   UNL     1       4.776 -12.447   1.031  0.00  0.00    +0.000 C 
ATOM      7  C   UNL     1       3.605 -11.644   0.511  0.00  0.00    +0.000 C 
ATOM      8  H   UNL     1       3.979 -12.284   3.716  0.00  0.00    +0.000 HD
ATOM      9  H   UNL     1       3.055 -13.787   3.727  0.00  0.00    +0.000 HD
ATOM     10  H   UNL     1       1.584 -11.828   3.291  0.00  0.00    +0.000 HD
ATOM     11  H   UNL     1       1.579 -12.961   1.941  0.00  0.00    +0.000 HD
ATOM     12  H   UNL     1       3.744 -14.295   1.421  0.00  0.00    +0.000 HD
ATOM     13  H   UNL     1       5.166 -14.037   2.432  0.00  0.00    +0.000 HD
ATOM     14  H   UNL     1       3.120 -10.314   2.096  0.00  0.00    +0.000 HD
ATOM     15  H   UNL     1       1.754 -10.710   1.036  0.00  0.00    +0.000 HD
ATOM     16  H   UNL     1       5.305 -12.898   0.185  0.00  0.00    +0.000 HD
ATOM     17  H   UNL     1       5.463 -11.759   1.535  0.00  0.00    +0.000 HD
ENDROOT
TORSDOF 0
ENDMDL
MODEL 2
REMARK VINA RESULT:    -4.125      6.352      7.373
REMARK INTER + INTRA:          -4.125
REMARK INTER:                  -4.125
REMARK INTRA:                   0.000
REMARK UNBOUND:                 0.000
REMARK  Name = 7967
REMARK  0 active torsions:
REMARK  status: ('A' for Active; 'I' for Inactive)
REMARK                            x       y       z     vdW  Elec       q    Type
REMARK                         _______ _______ _______ _____ _____    ______ ____
ROOT
ATOM      1  O   UNL     1      10.069  -7.194  -1.276  0.00  0.00    +0.000 OA
ATOM      2  C   UNL     1       9.310 -11.214  -0.992  0.00  0.00    +0.000 C 
ATOM      3  C   UNL     1       8.255 -10.168  -0.640  0.00  0.00    +0.000 C 
ATOM      4  C   UNL     1      10.326 -10.652  -1.985  0.00  0.00    +0.000 C 
ATOM      5  C   UNL     1       8.884  -8.900  -0.077  0.00  0.00    +0.000 C 
ATOM      6  C   UNL     1      11.001  -9.397  -1.451  0.00  0.00    +0.000 C 
ATOM      7  C   UNL     1       9.969  -8.389  -0.998  0.00  0.00    +0.000 C 
ATOM      8  H   UNL     1       9.824 -11.544  -0.081  0.00  0.00    +0.000 HD
ATOM      9  H   UNL     1       8.822 -12.095  -1.425  0.00  0.00    +0.000 HD
ATOM     10  H   UNL     1       7.550 -10.583   0.087  0.00  0.00    +0.000 HD
ATOM     11  H   UNL     1       7.680  -9.921  -1.542  0.00  0.00    +0.000 HD
ATOM     12  H   UNL     1       9.816 -10.421  -2.928  0.00  0.00    +0.000 HD
ATOM     13  H   UNL     1      11.084 -11.412  -2.208  0.00  0.00    +0.000 HD
ATOM     14  H   UNL     1       9.332  -9.089   0.904  0.00  0.00    +0.000 HD
ATOM     15  H   UNL     1       8.118  -8.125   0.040  0.00  0.00    +0.000 HD
ATOM     16  H   UNL     1      11.622  -8.948  -2.233  0.00  0.00    +0.000 HD
ATOM     17  H   UNL     1      11.644  -9.632  -0.596  0.00  0.00    +0.000 HD
ENDROOT
TORSDOF 0
ENDMDL
MODEL 3
REMARK VINA RESULT:    -4.104      8.723      9.511
REMARK INTER + INTRA:          -4.104
REMARK INTER:                  -4.104
REMARK INTRA:                   0.000
REMARK UNBOUND:                 0.000
REMARK  Name = 7967
REMARK  0 active torsions:
REMARK  status: ('A' for Active; 'I' for Inactive)
REMARK                            x       y       z     vdW  Elec       q    Type
REMARK                         _______ _______ _______ _____ _____    ______ ____
ROOT
ATOM      1  O   UNL     1       6.669  -3.881   0.874  0.00  0.00    +0.000 OA
ATOM      2  C   UNL     1       3.428  -2.700  -1.343  0.00  0.00    +0.000 C 
ATOM      3  C   UNL     1       3.428  -2.637   0.182  0.00  0.00    +0.000 C 
ATOM      4  C   UNL     1       4.852  -2.626  -1.892  0.00  0.00    +0.000 C 
ATOM      5  C   UNL     1       4.276  -3.744   0.793  0.00  0.00    +0.000 C 
ATOM      6  C   UNL     1       5.731  -3.734  -1.328  0.00  0.00    +0.000 C 
ATOM      7  C   UNL     1       5.660  -3.754   0.182  0.00  0.00    +0.000 C 
ATOM      8  H   UNL     1       2.949  -3.628  -1.676  0.00  0.00    +0.000 HD
ATOM      9  H   UNL     1       2.837  -1.870  -1.745  0.00  0.00    +0.000 HD
ATOM     10  H   UNL     1       2.401  -2.711   0.556  0.00  0.00    +0.000 HD
ATOM     11  H   UNL     1       3.816  -1.661   0.501  0.00  0.00    +0.000 HD
ATOM     12  H   UNL     1       5.284  -1.651  -1.638  0.00  0.00    +0.000 HD
ATOM     13  H   UNL     1       4.830  -2.694  -2.986  0.00  0.00    +0.000 HD
ATOM     14  H   UNL     1       3.822  -4.725   0.621  0.00  0.00    +0.000 HD
ATOM     15  H   UNL     1       4.362  -3.592   1.875  0.00  0.00    +0.000 HD
ATOM     16  H   UNL     1       6.770  -3.577  -1.636  0.00  0.00    +0.000 HD
ATOM     17  H   UNL     1       5.410  -4.714  -1.696  0.00  0.00    +0.000 HD
ENDROOT
TORSDOF 0
ENDMDL
MODEL 4
REMARK VINA RESULT:    -4.103     15.007     15.905
REMARK INTER + INTRA:          -4.103
REMARK INTER:                  -4.103
REMARK INTRA:                   0.000
REMARK UNBOUND:                 0.000
REMARK  Name = 7967
REMARK  0 active torsions:
REMARK  status: ('A' for Active; 'I' for Inactive)
REMARK                            x       y       z     vdW  Elec       q    Type
REMARK                         _______ _______ _______ _____ _____    ______ ____
ROOT
ATOM      1  O   UNL     1       0.534  -5.127  14.742  0.00  0.00    +0.000 OA
ATOM      2  C   UNL     1       0.467  -8.469  17.118  0.00  0.00    +0.000 C 
ATOM      3  C   UNL     1       1.645  -8.156  16.198  0.00  0.00    +0.000 C 
ATOM      4  C   UNL     1      -0.281  -7.192  17.498  0.00  0.00    +0.000 C 
ATOM      5  C   UNL     1       1.200  -7.422  14.941  0.00  0.00    +0.000 C 
ATOM      6  C   UNL     1      -0.770  -6.438  16.270  0.00  0.00    +0.000 C 
ATOM      7  C   UNL     1       0.365  -6.212  15.296  0.00  0.00    +0.000 C 
ATOM      8  H   UNL     1      -0.217  -9.166  16.620  0.00  0.00    +0.000 HD
ATOM      9  H   UNL     1       0.831  -8.965  18.024  0.00  0.00    +0.000 HD
ATOM     10  H   UNL     1       2.155  -9.085  15.921  0.00  0.00    +0.000 HD
ATOM     11  H   UNL     1       2.372  -7.541  16.742  0.00  0.00    +0.000 HD
ATOM     12  H   UNL     1       0.385  -6.547  18.083  0.00  0.00    +0.000 HD
ATOM     13  H   UNL     1      -1.134  -7.441  18.141  0.00  0.00    +0.000 HD
ATOM     14  H   UNL     1       0.597  -8.074  14.299  0.00  0.00    +0.000 HD
ATOM     15  H   UNL     1       2.077  -7.098  14.369  0.00  0.00    +0.000 HD
ATOM     16  H   UNL     1      -1.184  -5.469  16.569  0.00  0.00    +0.000 HD
ATOM     17  H   UNL     1      -1.554  -6.999  15.752  0.00  0.00    +0.000 HD
ENDROOT
TORSDOF 0
ENDMDL
MODEL 5
REMARK VINA RESULT:    -4.046     14.650     15.396
REMARK INTER + INTRA:          -4.046
REMARK INTER:                  -4.046
REMARK INTRA:                   0.000
REMARK UNBOUND:                 0.000
REMARK  Name = 7967
REMARK  0 active torsions:
REMARK  status: ('A' for Active; 'I' for Inactive)
REMARK                            x       y       z     vdW  Elec       q    Type
REMARK                         _______ _______ _______ _____ _____    ______ ____
ROOT
ATOM      1  O   UNL     1       1.890  -7.953  14.767  0.00  0.00    +0.000 OA
ATOM      2  C   UNL     1       0.965  -4.011  15.416  0.00  0.00    +0.000 C 
ATOM      3  C   UNL     1       0.353  -5.131  16.253  0.00  0.00    +0.000 C 
ATOM      4  C   UNL     1       2.310  -4.440  14.831  0.00  0.00    +0.000 C 
ATOM      5  C   UNL     1       0.183  -6.411  15.446  0.00  0.00    +0.000 C 
ATOM      6  C   UNL     1       2.183  -5.703  13.992  0.00  0.00    +0.000 C 
ATOM      7  C   UNL     1       1.482  -6.793  14.771  0.00  0.00    +0.000 C 
ATOM      8  H   UNL     1       0.279  -3.736  14.606  0.00  0.00    +0.000 HD
ATOM      9  H   UNL     1       1.103  -3.120  16.039  0.00  0.00    +0.000 HD
ATOM     10  H   UNL     1      -0.618  -4.812  16.646  0.00  0.00    +0.000 HD
ATOM     11  H   UNL     1       1.000  -5.328  17.118  0.00  0.00    +0.000 HD
ATOM     12  H   UNL     1       3.018  -4.614  15.650  0.00  0.00    +0.000 HD
ATOM     13  H   UNL     1       2.722  -3.629  14.218  0.00  0.00    +0.000 HD
ATOM     14  H   UNL     1      -0.579  -6.285  14.670  0.00  0.00    +0.000 HD
ATOM     15  H   UNL     1      -0.132  -7.227  16.106  0.00  0.00    +0.000 HD
ATOM     16  H   UNL     1       3.177  -6.056  13.697  0.00  0.00    +0.000 HD
ATOM     17  H   UNL     1       1.605  -5.511  13.082  0.00  0.00    +0.000 HD
ENDROOT
TORSDOF 0
ENDMDL
MODEL 6
REMARK VINA RESULT:    -3.970      9.308      9.864
REMARK INTER + INTRA:          -3.970
REMARK INTER:                  -3.970
REMARK INTRA:                   0.000
REMARK UNBOUND:                 0.000
REMARK  Name = 7967
REMARK  0 active torsions:
REMARK  status: ('A' for Active; 'I' for Inactive)
REMARK                            x       y       z     vdW  Elec       q    Type
REMARK                         _______ _______ _______ _____ _____    ______ ____
ROOT
ATOM      1  O   UNL     1       7.239  -2.516  -1.918  0.00  0.00    +0.000 OA
ATOM      2  C   UNL     1       3.801  -3.246   0.195  0.00  0.00    +0.000 C 
ATOM      3  C   UNL     1       5.169  -3.198   0.871  0.00  0.00    +0.000 C 
ATOM      4  C   UNL     1       3.799  -2.420  -1.091  0.00  0.00    +0.000 C 
ATOM      5  C   UNL     1       6.275  -3.680  -0.057  0.00  0.00    +0.000 C 
ATOM      6  C   UNL     1       4.874  -2.887  -2.062  0.00  0.00    +0.000 C 
ATOM      7  C   UNL     1       6.221  -2.947  -1.378  0.00  0.00    +0.000 C 
ATOM      8  H   UNL     1       3.536  -4.286  -0.031  0.00  0.00    +0.000 HD
ATOM      9  H   UNL     1       3.039  -2.860   0.880  0.00  0.00    +0.000 HD
ATOM     10  H   UNL     1       5.155  -3.811   1.778  0.00  0.00    +0.000 HD
ATOM     11  H   UNL     1       5.378  -2.167   1.184  0.00  0.00    +0.000 HD
ATOM     12  H   UNL     1       3.966  -1.366  -0.840  0.00  0.00    +0.000 HD
ATOM     13  H   UNL     1       2.815  -2.485  -1.570  0.00  0.00    +0.000 HD
ATOM     14  H   UNL     1       6.176  -4.752  -0.259  0.00  0.00    +0.000 HD
ATOM     15  H   UNL     1       7.252  -3.510   0.409  0.00  0.00    +0.000 HD
ATOM     16  H   UNL     1       4.933  -2.197  -2.910  0.00  0.00    +0.000 HD
ATOM     17  H   UNL     1       4.645  -3.885  -2.449  0.00  0.00    +0.000 HD
ENDROOT
TORSDOF 0
ENDMDL
MODEL 7
REMARK VINA RESULT:    -3.924     14.948     15.655
REMARK INTER + INTRA:          -3.924
REMARK INTER:                  -3.924
REMARK INTRA:                   0.000
REMARK UNBOUND:                 0.000
REMARK  Name = 7967
REMARK  0 active torsions:
REMARK  status: ('A' for Active; 'I' for Inactive)
REMARK                            x       y       z     vdW  Elec       q    Type
REMARK                         _______ _______ _______ _____ _____    ______ ____
ROOT
ATOM      1  O   UNL     1       3.355  -6.460  14.453  0.00  0.00    +0.000 OA
ATOM      2  C   UNL     1      -0.217  -5.712  16.324  0.00  0.00    +0.000 C 
ATOM      3  C   UNL     1       0.722  -4.586  15.899  0.00  0.00    +0.000 C 
ATOM      4  C   UNL     1      -0.001  -6.956  15.464  0.00  0.00    +0.000 C 
ATOM      5  C   UNL     1       2.182  -5.014  15.964  0.00  0.00    +0.000 C 
ATOM      6  C   UNL     1       1.442  -7.437  15.521  0.00  0.00    +0.000 C 
ATOM      7  C   UNL     1       2.394  -6.305  15.206  0.00  0.00    +0.000 C 
ATOM      8  H   UNL     1      -0.050  -5.957  17.380  0.00  0.00    +0.000 HD
ATOM      9  H   UNL     1      -1.256  -5.378  16.231  0.00  0.00    +0.000 HD
ATOM     10  H   UNL     1       0.566  -3.712  16.540  0.00  0.00    +0.000 HD
ATOM     11  H   UNL     1       0.477  -4.281  14.874  0.00  0.00    +0.000 HD
ATOM     12  H   UNL     1      -0.269  -6.726  14.426  0.00  0.00    +0.000 HD
ATOM     13  H   UNL     1      -0.670  -7.758  15.798  0.00  0.00    +0.000 HD
ATOM     14  H   UNL     1       2.497  -5.174  17.001  0.00  0.00    +0.000 HD
ATOM     15  H   UNL     1       2.818  -4.234  15.531  0.00  0.00    +0.000 HD
ATOM     16  H   UNL     1       1.594  -8.245  14.797  0.00  0.00    +0.000 HD
ATOM     17  H   UNL     1       1.688  -7.820  16.517  0.00  0.00    +0.000 HD
ENDROOT
TORSDOF 0
ENDMDL
MODEL 8
REMARK VINA RESULT:    -3.892     10.296     11.284
REMARK INTER + INTRA:          -3.892
REMARK INTER:                  -3.892
REMARK INTRA:                   0.000
REMARK UNBOUND:                 0.000
REMARK  Name = 7967
REMARK  0 active torsions:
REMARK  status: ('A' for Active; 'I' for Inactive)
REMARK                            x       y       z     vdW  Elec       q    Type
REMARK                         _______ _______ _______ _____ _____    ______ ____
ROOT
ATOM      1  O   UNL     1       7.713  -4.943  -0.604  0.00  0.00    +0.000 OA
ATOM      2  C   UNL     1       9.391  -1.254  -1.226  0.00  0.00    +0.000 C 
ATOM      3  C   UNL     1       9.522  -2.381  -2.247  0.00  0.00    +0.000 C 
ATOM      4  C   UNL     1       8.142  -1.438  -0.366  0.00  0.00    +0.000 C 
ATOM      5  C   UNL     1       9.550  -3.748  -1.577  0.00  0.00    +0.000 C 
ATOM      6  C   UNL     1       8.141  -2.783   0.346  0.00  0.00    +0.000 C 
ATOM      7  C   UNL     1       8.376  -3.908  -0.638  0.00  0.00    +0.000 C 
ATOM      8  H   UNL     1      10.282  -1.227  -0.586  0.00  0.00    +0.000 HD
ATOM      9  H   UNL     1       9.339  -0.291  -1.747  0.00  0.00    +0.000 HD
ATOM     10  H   UNL     1      10.433  -2.242  -2.838  0.00  0.00    +0.000 HD
ATOM     11  H   UNL     1       8.675  -2.334  -2.944  0.00  0.00    +0.000 HD
ATOM     12  H   UNL     1       7.254  -1.361  -1.003  0.00  0.00    +0.000 HD
ATOM     13  H   UNL     1       8.079  -0.630   0.373  0.00  0.00    +0.000 HD
ATOM     14  H   UNL     1      10.470  -3.880  -0.996  0.00  0.00    +0.000 HD
ATOM     15  H   UNL     1       9.511  -4.536  -2.338  0.00  0.00    +0.000 HD
ATOM     16  H   UNL     1       7.180  -2.939   0.846  0.00  0.00    +0.000 HD
ATOM     17  H   UNL     1       8.931  -2.825   1.104  0.00  0.00    +0.000 HD
ENDROOT
TORSDOF 0
ENDMDL
MODEL 9
REMARK VINA RESULT:    -3.892     15.458     16.160
REMARK INTER + INTRA:          -3.892
REMARK INTER:                  -3.892
REMARK INTRA:                   0.000
REMARK UNBOUND:                 0.000
REMARK  Name = 7967
REMARK  0 active torsions:
REMARK  status: ('A' for Active; 'I' for Inactive)
REMARK                            x       y       z     vdW  Elec       q    Type
REMARK                         _______ _______ _______ _____ _____    ______ ____
ROOT
ATOM      1  O   UNL     1       1.585  -6.837  15.005  0.00  0.00    +0.000 OA
ATOM      2  C   UNL     1       2.802  -2.963  15.578  0.00  0.00    +0.000 C 
ATOM      3  C   UNL     1       3.761  -4.046  15.089  0.00  0.00    +0.000 C 
ATOM      4  C   UNL     1       1.358  -3.312  15.219  0.00  0.00    +0.000 C 
ATOM      5  C   UNL     1       3.403  -5.414  15.654  0.00  0.00    +0.000 C 
ATOM      6  C   UNL     1       0.947  -4.662  15.788  0.00  0.00    +0.000 C 
ATOM      7  C   UNL     1       1.946  -5.730  15.402  0.00  0.00    +0.000 C 
ATOM      8  H   UNL     1       2.897  -2.845  16.664  0.00  0.00    +0.000 HD
ATOM      9  H   UNL     1       3.071  -2.003  15.124  0.00  0.00    +0.000 HD
ATOM     10  H   UNL     1       4.787  -3.788  15.373  0.00  0.00    +0.000 HD
ATOM     11  H   UNL     1       3.732  -4.084  13.993  0.00  0.00    +0.000 HD
ATOM     12  H   UNL     1       1.253  -3.327  14.128  0.00  0.00    +0.000 HD
ATOM     13  H   UNL     1       0.685  -2.533  15.597  0.00  0.00    +0.000 HD
ATOM     14  H   UNL     1       3.576  -5.448  16.735  0.00  0.00    +0.000 HD
ATOM     15  H   UNL     1       4.024  -6.185  15.184  0.00  0.00    +0.000 HD
ATOM     16  H   UNL     1      -0.041  -4.941  15.407  0.00  0.00    +0.000 HD
ATOM     17  H   UNL     1       0.894  -4.627  16.881  0.00  0.00    +0.000 HD
ENDROOT
TORSDOF 0
ENDMDL
MODEL 10
REMARK VINA RESULT:    -3.858      6.221      7.479
REMARK INTER + INTRA:          -3.858
REMARK INTER:                  -3.858
REMARK INTRA:                   0.000
REMARK UNBOUND:                 0.000
REMARK  Name = 7967
REMARK  0 active torsions:
REMARK  status: ('A' for Active; 'I' for Inactive)
REMARK                            x       y       z     vdW  Elec       q    Type
REMARK                         _______ _______ _______ _____ _____    ______ ____
ROOT
ATOM      1  O   UNL     1       8.064 -10.668   0.349  0.00  0.00    +0.000 OA
ATOM      2  C   UNL     1      10.960  -9.038  -2.054  0.00  0.00    +0.000 C 
ATOM      3  C   UNL     1      10.285  -8.234  -0.945  0.00  0.00    +0.000 C 
ATOM      4  C   UNL     1      10.912 -10.534  -1.749  0.00  0.00    +0.000 C 
ATOM      5  C   UNL     1       8.843  -8.672  -0.728  0.00  0.00    +0.000 C 
ATOM      6  C   UNL     1       9.484 -11.023  -1.551  0.00  0.00    +0.000 C 
ATOM      7  C   UNL     1       8.764 -10.170  -0.531  0.00  0.00    +0.000 C 
ATOM      8  H   UNL     1      10.465  -8.838  -3.012  0.00  0.00    +0.000 HD
ATOM      9  H   UNL     1      12.003  -8.718  -2.156  0.00  0.00    +0.000 HD
ATOM     10  H   UNL     1      10.312  -7.168  -1.192  0.00  0.00    +0.000 HD
ATOM     11  H   UNL     1      10.850  -8.363  -0.013  0.00  0.00    +0.000 HD
ATOM     12  H   UNL     1      11.496 -10.735  -0.843  0.00  0.00    +0.000 HD
ATOM     13  H   UNL     1      11.383 -11.094  -2.566  0.00  0.00    +0.000 HD
ATOM     14  H   UNL     1       8.221  -8.410  -1.590  0.00  0.00    +0.000 HD
ATOM     15  H   UNL     1       8.431  -8.172   0.155  0.00  0.00    +0.000 HD
ATOM     16  H   UNL     1       9.491 -12.063  -1.208  0.00  0.00    +0.000 HD
ATOM     17  H   UNL     1       8.921 -10.977  -2.489  0.00  0.00    +0.000 HD
ENDROOT
TORSDOF 0
ENDMDL
