MODEL 1
REMARK VINA RESULT:    -4.752      0.000      0.000
REMARK INTER + INTRA:          -7.924
REMARK INTER:                  -7.443
REMARK INTRA:                  -0.481
REMARK UNBOUND:                -0.673
REMARK  Name = 2969
REMARK  10 active torsions:
REMARK  status: ('A' for Active; 'I' for Inactive)
REMARK    1  A    between atoms: O_1  and  C_12
REMARK    2  A    between atoms: C_3  and  C_4
REMARK    3  A    between atoms: C_3  and  C_5
REMARK    4  A    between atoms: C_4  and  C_6
REMARK    5  A    between atoms: C_5  and  C_7
REMARK    6  A    between atoms: C_6  and  C_8
REMARK    7  A    between atoms: C_7  and  C_9
REMARK    8  A    between atoms: C_8  and  C_10
REMARK    9  A    between atoms: C_9  and  C_11
REMARK   10  A    between atoms: C_10  and  C_12
REMARK                            x       y       z     vdW  Elec       q    Type
REMARK                         _______ _______ _______ _____ _____    ______ ____
ROOT
ATOM      1  C   UNL     1       0.423  -7.537  16.069  0.00  0.00    +0.000 C 
ATOM      2  H   UNL     1       1.481  -7.250  16.040  0.00  0.00    +0.000 HD
ATOM      3  H   UNL     1       0.236  -8.124  15.161  0.00  0.00    +0.000 HD
ENDROOT
BRANCH   1   4
ATOM      4  C   UNL     1      -0.430  -6.265  16.004  0.00  0.00    +0.000 C 
ATOM      5  H   UNL     1      -1.204  -6.329  16.779  0.00  0.00    +0.000 HD
ATOM      6  H   UNL     1      -0.958  -6.247  15.042  0.00  0.00    +0.000 HD
BRANCH   4   7
ATOM      7  C   UNL     1       0.329  -4.945  16.170  0.00  0.00    +0.000 C 
ATOM      8  H   UNL     1      -0.390  -4.117  16.188  0.00  0.00    +0.000 HD
ATOM      9  H   UNL     1       0.835  -4.948  17.144  0.00  0.00    +0.000 HD
BRANCH   7  10
ATOM     10  C   UNL     1       1.357  -4.693  15.062  0.00  0.00    +0.000 C 
ATOM     11  H   UNL     1       0.880  -4.145  14.239  0.00  0.00    +0.000 HD
ATOM     12  H   UNL     1       1.687  -5.652  14.647  0.00  0.00    +0.000 HD
BRANCH  10  13
ATOM     13  C   UNL     1       2.573  -3.912  15.563  0.00  0.00    +0.000 C 
ATOM     14  H   UNL     1       2.427  -3.646  16.616  0.00  0.00    +0.000 HD
ATOM     15  H   UNL     1       3.469  -4.537  15.477  0.00  0.00    +0.000 HD
BRANCH  13  17
ATOM     16  O   UNL     1       3.922  -2.171  14.521  0.00  0.00    +0.000 OA
ATOM     17  C   UNL     1       2.823  -2.636  14.791  0.00  0.00    +0.000 C 
BRANCH  17  18
ATOM     18  O   UNL     1       1.657  -2.057  14.399  0.00  0.00    +0.000 OA
ATOM     19  H   UNL     1       1.295  -1.462  15.091  0.00  0.00    +0.000 HD
ENDBRANCH  17  18
ENDBRANCH  13  17
ENDBRANCH  10  13
ENDBRANCH   7  10
ENDBRANCH   4   7
ENDBRANCH   1   4
BRANCH   1  20
ATOM     20  C   UNL     1       0.187  -8.435  17.288  0.00  0.00    +0.000 C 
ATOM     21  H   UNL     1       1.109  -8.987  17.506  0.00  0.00    +0.000 HD
ATOM     22  H   UNL     1      -0.577  -9.180  17.036  0.00  0.00    +0.000 HD
BRANCH  20  23
ATOM     23  C   UNL     1      -0.245  -7.662  18.536  0.00  0.00    +0.000 C 
ATOM     24  H   UNL     1      -0.154  -6.585  18.352  0.00  0.00    +0.000 HD
ATOM     25  H   UNL     1      -1.302  -7.867  18.744  0.00  0.00    +0.000 HD
BRANCH  23  26
ATOM     26  C   UNL     1       0.604  -8.050  19.748  0.00  0.00    +0.000 C 
ATOM     27  H   UNL     1       0.079  -7.778  20.672  0.00  0.00    +0.000 HD
ATOM     28  H   UNL     1       0.751  -9.136  19.767  0.00  0.00    +0.000 HD
BRANCH  26  29
ATOM     29  C   UNL     1       1.957  -7.361  19.724  0.00  0.00    +0.000 C 
ATOM     30  H   UNL     1       2.178  -6.896  20.689  0.00  0.00    +0.000 HD
ATOM     31  H   UNL     1       1.970  -6.577  18.959  0.00  0.00    +0.000 HD
ATOM     32  H   UNL     1       2.757  -8.072  19.494  0.00  0.00    +0.000 HD
ENDBRANCH  26  29
ENDBRANCH  23  26
ENDBRANCH  20  23
ENDBRANCH   1  20
TORSDOF 10
ENDMDL
MODEL 2
REMARK VINA RESULT:    -4.346     24.325     25.885
REMARK INTER + INTRA:          -7.305
REMARK INTER:                  -6.334
REMARK INTRA:                  -0.971
REMARK UNBOUND:                -0.673
REMARK  Name = 2969
REMARK  10 active torsions:
REMARK  status: ('A' for Active; 'I' for Inactive)
REMARK    1  A    between atoms: O_1  and  C_12
REMARK    2  A    between atoms: C_3  and  C_4
REMARK    3  A    between atoms: C_3  and  C_5
REMARK    4  A    between atoms: C_4  and  C_6
REMARK    5  A    between atoms: C_5  and  C_7
REMARK    6  A    between atoms: C_6  and  C_8
REMARK    7  A    between atoms: C_7  and  C_9
REMARK    8  A    between atoms: C_8  and  C_10
REMARK    9  A    between atoms: C_9  and  C_11
REMARK   10  A    between atoms: C_10  and  C_12
REMARK                            x       y       z     vdW  Elec       q    Type
REMARK                         _______ _______ _______ _____ _____    ______ ____
ROOT
ATOM      1  C   UNL     1      -5.438  -6.706 -10.139  0.00  0.00    +0.000 C 
ATOM      2  H   UNL     1      -5.591  -5.878 -10.841  0.00  0.00    +0.000 HD
ATOM      3  H   UNL     1      -5.441  -7.625 -10.739  0.00  0.00    +0.000 HD
ENDROOT
BRANCH   1   4
ATOM      4  C   UNL     1      -6.630  -6.757  -9.176  0.00  0.00    +0.000 C 
ATOM      5  H   UNL     1      -6.946  -7.802  -9.073  0.00  0.00    +0.000 HD
ATOM      6  H   UNL     1      -7.473  -6.224  -9.635  0.00  0.00    +0.000 HD
BRANCH   4   7
ATOM      7  C   UNL     1      -6.384  -6.173  -7.781  0.00  0.00    +0.000 C 
ATOM      8  H   UNL     1      -5.329  -5.894  -7.688  0.00  0.00    +0.000 HD
ATOM      9  H   UNL     1      -6.968  -5.250  -7.676  0.00  0.00    +0.000 HD
BRANCH   7  10
ATOM     10  C   UNL     1      -6.749  -7.139  -6.647  0.00  0.00    +0.000 C 
ATOM     11  H   UNL     1      -7.801  -6.997  -6.370  0.00  0.00    +0.000 HD
ATOM     12  H   UNL     1      -6.158  -6.894  -5.757  0.00  0.00    +0.000 HD
BRANCH  10  13
ATOM     13  C   UNL     1      -6.509  -8.600  -7.029  0.00  0.00    +0.000 C 
ATOM     14  H   UNL     1      -7.470  -9.085  -7.239  0.00  0.00    +0.000 HD
ATOM     15  H   UNL     1      -5.886  -8.646  -7.929  0.00  0.00    +0.000 HD
BRANCH  13  17
ATOM     16  O   UNL     1      -5.314 -10.502  -6.083  0.00  0.00    +0.000 OA
ATOM     17  C   UNL     1      -5.816  -9.395  -5.944  0.00  0.00    +0.000 C 
BRANCH  17  18
ATOM     18  O   UNL     1      -5.790  -8.712  -4.769  0.00  0.00    +0.000 OA
ATOM     19  H   UNL     1      -5.326  -9.214  -4.065  0.00  0.00    +0.000 HD
ENDBRANCH  17  18
ENDBRANCH  13  17
ENDBRANCH  10  13
ENDBRANCH   7  10
ENDBRANCH   4   7
ENDBRANCH   1   4
BRANCH   1  20
ATOM     20  C   UNL     1      -4.061  -6.553  -9.485  0.00  0.00    +0.000 C 
ATOM     21  H   UNL     1      -4.188  -6.498  -8.397  0.00  0.00    +0.000 HD
ATOM     22  H   UNL     1      -3.623  -5.598  -9.802  0.00  0.00    +0.000 HD
BRANCH  20  23
ATOM     23  C   UNL     1      -3.098  -7.693  -9.824  0.00  0.00    +0.000 C 
ATOM     24  H   UNL     1      -3.318  -8.073 -10.829  0.00  0.00    +0.000 HD
ATOM     25  H   UNL     1      -2.071  -7.311  -9.840  0.00  0.00    +0.000 HD
BRANCH  23  26
ATOM     26  C   UNL     1      -3.210  -8.831  -8.808  0.00  0.00    +0.000 C 
ATOM     27  H   UNL     1      -2.209  -9.133  -8.477  0.00  0.00    +0.000 HD
ATOM     28  H   UNL     1      -3.755  -8.487  -7.922  0.00  0.00    +0.000 HD
BRANCH  26  29
ATOM     29  C   UNL     1      -3.922 -10.037  -9.398  0.00  0.00    +0.000 C 
ATOM     30  H   UNL     1      -4.841 -10.258  -8.846  0.00  0.00    +0.000 HD
ATOM     31  H   UNL     1      -3.277 -10.920  -9.350  0.00  0.00    +0.000 HD
ATOM     32  H   UNL     1      -4.184  -9.864 -10.447  0.00  0.00    +0.000 HD
ENDBRANCH  26  29
ENDBRANCH  23  26
ENDBRANCH  20  23
ENDBRANCH   1  20
TORSDOF 10
ENDMDL
MODEL 3
REMARK VINA RESULT:    -4.267     24.031     26.887
REMARK INTER + INTRA:          -7.184
REMARK INTER:                  -6.831
REMARK INTRA:                  -0.353
REMARK UNBOUND:                -0.673
REMARK  Name = 2969
REMARK  10 active torsions:
REMARK  status: ('A' for Active; 'I' for Inactive)
REMARK    1  A    between atoms: O_1  and  C_12
REMARK    2  A    between atoms: C_3  and  C_4
REMARK    3  A    between atoms: C_3  and  C_5
REMARK    4  A    between atoms: C_4  and  C_6
REMARK    5  A    between atoms: C_5  and  C_7
REMARK    6  A    between atoms: C_6  and  C_8
REMARK    7  A    between atoms: C_7  and  C_9
REMARK    8  A    between atoms: C_8  and  C_10
REMARK    9  A    between atoms: C_9  and  C_11
REMARK   10  A    between atoms: C_10  and  C_12
REMARK                            x       y       z     vdW  Elec       q    Type
REMARK                         _______ _______ _______ _____ _____    ______ ____
ROOT
ATOM      1  C   UNL     1       7.926  13.789  -0.351  0.00  0.00    +0.000 C 
ATOM      2  H   UNL     1       7.922  14.842  -0.660  0.00  0.00    +0.000 HD
ATOM      3  H   UNL     1       8.955  13.560  -0.049  0.00  0.00    +0.000 HD
ENDROOT
BRANCH   1   4
ATOM      4  C   UNL     1       7.575  12.923  -1.565  0.00  0.00    +0.000 C 
ATOM      5  H   UNL     1       7.301  13.586  -2.395  0.00  0.00    +0.000 HD
ATOM      6  H   UNL     1       6.677  12.337  -1.330  0.00  0.00    +0.000 HD
BRANCH   4   7
ATOM      7  C   UNL     1       8.673  11.965  -2.039  0.00  0.00    +0.000 C 
ATOM      8  H   UNL     1       9.645  12.330  -1.689  0.00  0.00    +0.000 HD
ATOM      9  H   UNL     1       8.514  10.985  -1.572  0.00  0.00    +0.000 HD
BRANCH   7  10
ATOM     10  C   UNL     1       8.718  11.801  -3.563  0.00  0.00    +0.000 C 
ATOM     11  H   UNL     1       7.731  12.028  -3.985  0.00  0.00    +0.000 HD
ATOM     12  H   UNL     1       8.929  10.754  -3.810  0.00  0.00    +0.000 HD
BRANCH  10  13
ATOM     13  C   UNL     1       9.774  12.696  -4.213  0.00  0.00    +0.000 C 
ATOM     14  H   UNL     1       9.533  13.748  -4.016  0.00  0.00    +0.000 HD
ATOM     15  H   UNL     1      10.758  12.474  -3.783  0.00  0.00    +0.000 HD
BRANCH  13  17
ATOM     16  O   UNL     1      10.772  12.937  -6.422  0.00  0.00    +0.000 OA
ATOM     17  C   UNL     1       9.872  12.514  -5.711  0.00  0.00    +0.000 C 
BRANCH  17  18
ATOM     18  O   UNL     1       8.828  11.788  -6.191  0.00  0.00    +0.000 OA
ATOM     19  H   UNL     1       7.969  12.106  -5.839  0.00  0.00    +0.000 HD
ENDBRANCH  17  18
ENDBRANCH  13  17
ENDBRANCH  10  13
ENDBRANCH   7  10
ENDBRANCH   4   7
ENDBRANCH   1   4
BRANCH   1  20
ATOM     20  C   UNL     1       7.012  13.628   0.868  0.00  0.00    +0.000 C 
ATOM     21  H   UNL     1       6.660  14.618   1.182  0.00  0.00    +0.000 HD
ATOM     22  H   UNL     1       7.600  13.222   1.700  0.00  0.00    +0.000 HD
BRANCH  20  23
ATOM     23  C   UNL     1       5.806  12.723   0.607  0.00  0.00    +0.000 C 
ATOM     24  H   UNL     1       4.895  13.331   0.554  0.00  0.00    +0.000 HD
ATOM     25  H   UNL     1       5.923  12.230  -0.365  0.00  0.00    +0.000 HD
BRANCH  23  26
ATOM     26  C   UNL     1       5.658  11.668   1.704  0.00  0.00    +0.000 C 
ATOM     27  H   UNL     1       4.682  11.177   1.618  0.00  0.00    +0.000 HD
ATOM     28  H   UNL     1       6.423  10.893   1.582  0.00  0.00    +0.000 HD
BRANCH  26  29
ATOM     29  C   UNL     1       5.785  12.283   3.088  0.00  0.00    +0.000 C 
ATOM     30  H   UNL     1       4.970  12.988   3.280  0.00  0.00    +0.000 HD
ATOM     31  H   UNL     1       6.732  12.826   3.177  0.00  0.00    +0.000 HD
ATOM     32  H   UNL     1       5.761  11.512   3.865  0.00  0.00    +0.000 HD
ENDBRANCH  26  29
ENDBRANCH  23  26
ENDBRANCH  20  23
ENDBRANCH   1  20
TORSDOF 10
ENDMDL
MODEL 4
REMARK VINA RESULT:    -4.172      3.781      5.190
REMARK INTER + INTRA:          -7.039
REMARK INTER:                  -6.253
REMARK INTRA:                  -0.787
REMARK UNBOUND:                -0.673
REMARK  Name = 2969
REMARK  10 active torsions:
REMARK  status: ('A' for Active; 'I' for Inactive)
REMARK    1  A    between atoms: O_1  and  C_12
REMARK    2  A    between atoms: C_3  and  C_4
REMARK    3  A    between atoms: C_3  and  C_5
REMARK    4  A    between atoms: C_4  and  C_6
REMARK    5  A    between atoms: C_5  and  C_7
REMARK    6  A    between atoms: C_6  and  C_8
REMARK    7  A    between atoms: C_7  and  C_9
REMARK    8  A    between atoms: C_8  and  C_10
REMARK    9  A    between atoms: C_9  and  C_11
REMARK   10  A    between atoms: C_10  and  C_12
REMARK                            x       y       z     vdW  Elec       q    Type
REMARK                         _______ _______ _______ _____ _____    ______ ____
ROOT
ATOM      1  C   UNL     1       2.887  -4.782  16.620  0.00  0.00    +0.000 C 
ATOM      2  H   UNL     1       3.446  -4.177  17.346  0.00  0.00    +0.000 HD
ATOM      3  H   UNL     1       2.221  -5.428  17.205  0.00  0.00    +0.000 HD
ENDROOT
BRANCH   1   4
ATOM      4  C   UNL     1       3.877  -5.671  15.860  0.00  0.00    +0.000 C 
ATOM      5  H   UNL     1       4.730  -5.877  16.518  0.00  0.00    +0.000 HD
ATOM      6  H   UNL     1       4.275  -5.103  15.009  0.00  0.00    +0.000 HD
BRANCH   4   7
ATOM      7  C   UNL     1       3.318  -7.000  15.343  0.00  0.00    +0.000 C 
ATOM      8  H   UNL     1       4.104  -7.762  15.387  0.00  0.00    +0.000 HD
ATOM      9  H   UNL     1       2.516  -7.332  16.015  0.00  0.00    +0.000 HD
BRANCH   7  10
ATOM     10  C   UNL     1       2.780  -6.915  13.910  0.00  0.00    +0.000 C 
ATOM     11  H   UNL     1       3.301  -6.113  13.371  0.00  0.00    +0.000 HD
ATOM     12  H   UNL     1       1.720  -6.637  13.935  0.00  0.00    +0.000 HD
BRANCH  10  13
ATOM     13  C   UNL     1       2.940  -8.233  13.151  0.00  0.00    +0.000 C 
ATOM     14  H   UNL     1       2.181  -8.947  13.494  0.00  0.00    +0.000 HD
ATOM     15  H   UNL     1       2.799  -8.057  12.078  0.00  0.00    +0.000 HD
BRANCH  13  17
ATOM     16  O   UNL     1       5.371  -8.363  13.046  0.00  0.00    +0.000 OA
ATOM     17  C   UNL     1       4.298  -8.872  13.340  0.00  0.00    +0.000 C 
BRANCH  17  18
ATOM     18  O   UNL     1       4.193 -10.100  13.912  0.00  0.00    +0.000 OA
ATOM     19  H   UNL     1       3.355 -10.547  13.664  0.00  0.00    +0.000 HD
ENDBRANCH  17  18
ENDBRANCH  13  17
ENDBRANCH  10  13
ENDBRANCH   7  10
ENDBRANCH   4   7
ENDBRANCH   1   4
BRANCH   1  20
ATOM     20  C   UNL     1       2.030  -3.851  15.757  0.00  0.00    +0.000 C 
ATOM     21  H   UNL     1       2.551  -3.664  14.810  0.00  0.00    +0.000 HD
ATOM     22  H   UNL     1       1.938  -2.882  16.264  0.00  0.00    +0.000 HD
BRANCH  20  23
ATOM     23  C   UNL     1       0.636  -4.408  15.464  0.00  0.00    +0.000 C 
ATOM     24  H   UNL     1      -0.096  -3.591  15.471  0.00  0.00    +0.000 HD
ATOM     25  H   UNL     1       0.621  -4.847  14.460  0.00  0.00    +0.000 HD
BRANCH  23  26
ATOM     26  C   UNL     1       0.235  -5.465  16.495  0.00  0.00    +0.000 C 
ATOM     27  H   UNL     1       1.126  -5.827  17.021  0.00  0.00    +0.000 HD
ATOM     28  H   UNL     1      -0.427  -5.019  17.247  0.00  0.00    +0.000 HD
BRANCH  26  29
ATOM     29  C   UNL     1      -0.469  -6.642  15.841  0.00  0.00    +0.000 C 
ATOM     30  H   UNL     1       0.238  -7.445  15.614  0.00  0.00    +0.000 HD
ATOM     31  H   UNL     1      -0.940  -6.329  14.903  0.00  0.00    +0.000 HD
ATOM     32  H   UNL     1      -1.249  -7.045  16.494  0.00  0.00    +0.000 HD
ENDBRANCH  26  29
ENDBRANCH  23  26
ENDBRANCH  20  23
ENDBRANCH   1  20
TORSDOF 10
ENDMDL
MODEL 5
REMARK VINA RESULT:    -4.123      2.724      3.986
REMARK INTER + INTRA:          -6.965
REMARK INTER:                  -6.605
REMARK INTRA:                  -0.360
REMARK UNBOUND:                -0.673
REMARK  Name = 2969
REMARK  10 active torsions:
REMARK  status: ('A' for Active; 'I' for Inactive)
REMARK    1  A    between atoms: O_1  and  C_12
REMARK    2  A    between atoms: C_3  and  C_4
REMARK    3  A    between atoms: C_3  and  C_5
REMARK    4  A    between atoms: C_4  and  C_6
REMARK    5  A    between atoms: C_5  and  C_7
REMARK    6  A    between atoms: C_6  and  C_8
REMARK    7  A    between atoms: C_7  and  C_9
REMARK    8  A    between atoms: C_8  and  C_10
REMARK    9  A    between atoms: C_9  and  C_11
REMARK   10  A    between atoms: C_10  and  C_12
REMARK                            x       y       z     vdW  Elec       q    Type
REMARK                         _______ _______ _______ _____ _____    ______ ____
ROOT
ATOM      1  C   UNL     1       1.133  -9.956  17.435  0.00  0.00    +0.000 C 
ATOM      2  H   UNL     1       1.893  -9.970  18.227  0.00  0.00    +0.000 HD
ATOM      3  H   UNL     1       1.491 -10.636  16.652  0.00  0.00    +0.000 HD
ENDROOT
BRANCH   1   4
ATOM      4  C   UNL     1       1.064  -8.541  16.851  0.00  0.00    +0.000 C 
ATOM      5  H   UNL     1       1.192  -8.611  15.763  0.00  0.00    +0.000 HD
ATOM      6  H   UNL     1       1.921  -7.966  17.225  0.00  0.00    +0.000 HD
BRANCH   4   7
ATOM      7  C   UNL     1      -0.219  -7.759  17.149  0.00  0.00    +0.000 C 
ATOM      8  H   UNL     1      -1.043  -8.465  17.304  0.00  0.00    +0.000 HD
ATOM      9  H   UNL     1      -0.088  -7.211  18.090  0.00  0.00    +0.000 HD
BRANCH   7  10
ATOM     10  C   UNL     1      -0.603  -6.777  16.036  0.00  0.00    +0.000 C 
ATOM     11  H   UNL     1      -1.686  -6.822  15.866  0.00  0.00    +0.000 HD
ATOM     12  H   UNL     1      -0.128  -7.087  15.098  0.00  0.00    +0.000 HD
BRANCH  10  13
ATOM     13  C   UNL     1      -0.192  -5.340  16.361  0.00  0.00    +0.000 C 
ATOM     14  H   UNL     1      -0.994  -4.655  16.061  0.00  0.00    +0.000 HD
ATOM     15  H   UNL     1      -0.028  -5.241  17.440  0.00  0.00    +0.000 HD
BRANCH  13  17
ATOM     16  O   UNL     1       2.183  -4.833  16.172  0.00  0.00    +0.000 OA
ATOM     17  C   UNL     1       1.076  -4.908  15.659  0.00  0.00    +0.000 C 
BRANCH  17  18
ATOM     18  O   UNL     1       0.845  -4.625  14.349  0.00  0.00    +0.000 OA
ATOM     19  H   UNL     1       0.100  -5.152  13.987  0.00  0.00    +0.000 HD
ENDBRANCH  17  18
ENDBRANCH  13  17
ENDBRANCH  10  13
ENDBRANCH   7  10
ENDBRANCH   4   7
ENDBRANCH   1   4
BRANCH   1  20
ATOM     20  C   UNL     1      -0.180 -10.508  17.999  0.00  0.00    +0.000 C 
ATOM     21  H   UNL     1      -0.994  -9.819  17.744  0.00  0.00    +0.000 HD
ATOM     22  H   UNL     1      -0.114 -10.529  19.094  0.00  0.00    +0.000 HD
BRANCH  20  23
ATOM     23  C   UNL     1      -0.522 -11.907  17.483  0.00  0.00    +0.000 C 
ATOM     24  H   UNL     1      -0.019 -12.078  16.523  0.00  0.00    +0.000 HD
ATOM     25  H   UNL     1      -0.144 -12.658  18.185  0.00  0.00    +0.000 HD
BRANCH  23  26
ATOM     26  C   UNL     1      -2.032 -12.078  17.308  0.00  0.00    +0.000 C 
ATOM     27  H   UNL     1      -2.471 -12.468  18.234  0.00  0.00    +0.000 HD
ATOM     28  H   UNL     1      -2.497 -11.104  17.114  0.00  0.00    +0.000 HD
BRANCH  26  29
ATOM     29  C   UNL     1      -2.357 -13.026  16.166  0.00  0.00    +0.000 C 
ATOM     30  H   UNL     1      -3.439 -13.142  16.049  0.00  0.00    +0.000 HD
ATOM     31  H   UNL     1      -1.928 -14.014  16.360  0.00  0.00    +0.000 HD
ATOM     32  H   UNL     1      -1.947 -12.657  15.221  0.00  0.00    +0.000 HD
ENDBRANCH  26  29
ENDBRANCH  23  26
ENDBRANCH  20  23
ENDBRANCH   1  20
TORSDOF 10
ENDMDL
MODEL 6
REMARK VINA RESULT:    -4.100      2.449      4.563
REMARK INTER + INTRA:          -6.930
REMARK INTER:                  -6.198
REMARK INTRA:                  -0.732
REMARK UNBOUND:                -0.673
REMARK  Name = 2969
REMARK  10 active torsions:
REMARK  status: ('A' for Active; 'I' for Inactive)
REMARK    1  A    between atoms: O_1  and  C_12
REMARK    2  A    between atoms: C_3  and  C_4
REMARK    3  A    between atoms: C_3  and  C_5
REMARK    4  A    between atoms: C_4  and  C_6
REMARK    5  A    between atoms: C_5  and  C_7
REMARK    6  A    between atoms: C_6  and  C_8
REMARK    7  A    between atoms: C_7  and  C_9
REMARK    8  A    between atoms: C_8  and  C_10
REMARK    9  A    between atoms: C_9  and  C_11
REMARK   10  A    between atoms: C_10  and  C_12
REMARK                            x       y       z     vdW  Elec       q    Type
REMARK                         _______ _______ _______ _____ _____    ______ ____
ROOT
ATOM      1  C   UNL     1      -0.594  -6.608  16.117  0.00  0.00    +0.000 C 
ATOM      2  H   UNL     1      -1.673  -6.470  15.976  0.00  0.00    +0.000 HD
ATOM      3  H   UNL     1      -0.219  -7.072  15.197  0.00  0.00    +0.000 HD
ENDROOT
BRANCH   1   4
ATOM      4  C   UNL     1      -0.375  -7.587  17.276  0.00  0.00    +0.000 C 
ATOM      5  H   UNL     1      -1.348  -8.001  17.566  0.00  0.00    +0.000 HD
ATOM      6  H   UNL     1      -0.007  -7.025  18.144  0.00  0.00    +0.000 HD
BRANCH   4   7
ATOM      7  C   UNL     1       0.590  -8.743  16.997  0.00  0.00    +0.000 C 
ATOM      8  H   UNL     1       0.401  -9.551  17.714  0.00  0.00    +0.000 HD
ATOM      9  H   UNL     1       0.380  -9.148  16.000  0.00  0.00    +0.000 HD
BRANCH   7  10
ATOM     10  C   UNL     1       2.066  -8.335  17.080  0.00  0.00    +0.000 C 
ATOM     11  H   UNL     1       2.602  -9.033  17.736  0.00  0.00    +0.000 HD
ATOM     12  H   UNL     1       2.144  -7.347  17.548  0.00  0.00    +0.000 HD
BRANCH  10  13
ATOM     13  C   UNL     1       2.738  -8.301  15.707  0.00  0.00    +0.000 C 
ATOM     14  H   UNL     1       3.189  -9.278  15.497  0.00  0.00    +0.000 HD
ATOM     15  H   UNL     1       1.988  -8.085  14.938  0.00  0.00    +0.000 HD
BRANCH  13  17
ATOM     16  O   UNL     1       4.458  -6.787  16.537  0.00  0.00    +0.000 OA
ATOM     17  C   UNL     1       3.825  -7.255  15.600  0.00  0.00    +0.000 C 
BRANCH  17  18
ATOM     18  O   UNL     1       4.044  -6.897  14.307  0.00  0.00    +0.000 OA
ATOM     19  H   UNL     1       4.765  -6.236  14.228  0.00  0.00    +0.000 HD
ENDBRANCH  17  18
ENDBRANCH  13  17
ENDBRANCH  10  13
ENDBRANCH   7  10
ENDBRANCH   4   7
ENDBRANCH   1   4
BRANCH   1  20
ATOM     20  C   UNL     1       0.065  -5.233  16.274  0.00  0.00    +0.000 C 
ATOM     21  H   UNL     1       0.612  -5.208  17.224  0.00  0.00    +0.000 HD
ATOM     22  H   UNL     1      -0.721  -4.470  16.341  0.00  0.00    +0.000 HD
BRANCH  20  23
ATOM     23  C   UNL     1       1.020  -4.884  15.132  0.00  0.00    +0.000 C 
ATOM     24  H   UNL     1       1.443  -5.805  14.712  0.00  0.00    +0.000 HD
ATOM     25  H   UNL     1       0.463  -4.389  14.328  0.00  0.00    +0.000 HD
BRANCH  23  26
ATOM     26  C   UNL     1       2.150  -3.973  15.614  0.00  0.00    +0.000 C 
ATOM     27  H   UNL     1       1.991  -3.710  16.667  0.00  0.00    +0.000 HD
ATOM     28  H   UNL     1       3.108  -4.503  15.554  0.00  0.00    +0.000 HD
BRANCH  26  29
ATOM     29  C   UNL     1       2.228  -2.699  14.790  0.00  0.00    +0.000 C 
ATOM     30  H   UNL     1       2.380  -1.825  15.432  0.00  0.00    +0.000 HD
ATOM     31  H   UNL     1       1.299  -2.551  14.230  0.00  0.00    +0.000 HD
ATOM     32  H   UNL     1       3.053  -2.745  14.072  0.00  0.00    +0.000 HD
ENDBRANCH  26  29
ENDBRANCH  23  26
ENDBRANCH  20  23
ENDBRANCH   1  20
TORSDOF 10
ENDMDL
MODEL 7
REMARK VINA RESULT:    -3.981      3.808      5.634
REMARK INTER + INTRA:          -6.748
REMARK INTER:                  -6.075
REMARK INTRA:                  -0.673
REMARK UNBOUND:                -0.673
REMARK  Name = 2969
REMARK  10 active torsions:
REMARK  status: ('A' for Active; 'I' for Inactive)
REMARK    1  A    between atoms: O_1  and  C_12
REMARK    2  A    between atoms: C_3  and  C_4
REMARK    3  A    between atoms: C_3  and  C_5
REMARK    4  A    between atoms: C_4  and  C_6
REMARK    5  A    between atoms: C_5  and  C_7
REMARK    6  A    between atoms: C_6  and  C_8
REMARK    7  A    between atoms: C_7  and  C_9
REMARK    8  A    between atoms: C_8  and  C_10
REMARK    9  A    between atoms: C_9  and  C_11
REMARK   10  A    between atoms: C_10  and  C_12
REMARK                            x       y       z     vdW  Elec       q    Type
REMARK                         _______ _______ _______ _____ _____    ______ ____
ROOT
ATOM      1  C   UNL     1       2.234  -4.579  14.563  0.00  0.00    +0.000 C 
ATOM      2  H   UNL     1       2.142  -3.556  14.949  0.00  0.00    +0.000 HD
ATOM      3  H   UNL     1       2.350  -4.489  13.476  0.00  0.00    +0.000 HD
ENDROOT
BRANCH   1   4
ATOM      4  C   UNL     1       0.927  -5.327  14.847  0.00  0.00    +0.000 C 
ATOM      5  H   UNL     1       1.107  -6.400  14.710  0.00  0.00    +0.000 HD
ATOM      6  H   UNL     1       0.187  -5.039  14.089  0.00  0.00    +0.000 HD
BRANCH   4   7
ATOM      7  C   UNL     1       0.318  -5.101  16.235  0.00  0.00    +0.000 C 
ATOM      8  H   UNL     1       1.121  -5.084  16.981  0.00  0.00    +0.000 HD
ATOM      9  H   UNL     1      -0.157  -4.112  16.256  0.00  0.00    +0.000 HD
BRANCH   7  10
ATOM     10  C   UNL     1      -0.709  -6.169  16.628  0.00  0.00    +0.000 C 
ATOM     11  H   UNL     1      -1.600  -6.070  15.995  0.00  0.00    +0.000 HD
ATOM     12  H   UNL     1      -1.038  -5.995  17.659  0.00  0.00    +0.000 HD
BRANCH  10  13
ATOM     13  C   UNL     1      -0.148  -7.587  16.508  0.00  0.00    +0.000 C 
ATOM     14  H   UNL     1      -0.754  -8.160  15.798  0.00  0.00    +0.000 HD
ATOM     15  H   UNL     1       0.883  -7.543  16.138  0.00  0.00    +0.000 HD
BRANCH  13  17
ATOM     16  O   UNL     1      -0.243  -7.833  18.931  0.00  0.00    +0.000 OA
ATOM     17  C   UNL     1      -0.136  -8.337  17.822  0.00  0.00    +0.000 C 
BRANCH  17  18
ATOM     18  O   UNL     1      -0.013  -9.677  17.625  0.00  0.00    +0.000 OA
ATOM     19  H   UNL     1       0.508  -9.881  16.819  0.00  0.00    +0.000 HD
ENDBRANCH  17  18
ENDBRANCH  13  17
ENDBRANCH  10  13
ENDBRANCH   7  10
ENDBRANCH   4   7
ENDBRANCH   1   4
BRANCH   1  20
ATOM     20  C   UNL     1       3.503  -5.213  15.140  0.00  0.00    +0.000 C 
ATOM     21  H   UNL     1       3.686  -4.798  16.138  0.00  0.00    +0.000 HD
ATOM     22  H   UNL     1       4.358  -4.926  14.516  0.00  0.00    +0.000 HD
BRANCH  20  23
ATOM     23  C   UNL     1       3.430  -6.739  15.234  0.00  0.00    +0.000 C 
ATOM     24  H   UNL     1       3.964  -7.078  16.129  0.00  0.00    +0.000 HD
ATOM     25  H   UNL     1       2.384  -7.049  15.343  0.00  0.00    +0.000 HD
BRANCH  23  26
ATOM     26  C   UNL     1       4.036  -7.398  13.993  0.00  0.00    +0.000 C 
ATOM     27  H   UNL     1       4.532  -6.641  13.374  0.00  0.00    +0.000 HD
ATOM     28  H   UNL     1       4.801  -8.123  14.294  0.00  0.00    +0.000 HD
BRANCH  26  29
ATOM     29  C   UNL     1       2.976  -8.103  13.163  0.00  0.00    +0.000 C 
ATOM     30  H   UNL     1       2.604  -7.451  12.367  0.00  0.00    +0.000 HD
ATOM     31  H   UNL     1       2.127  -8.387  13.794  0.00  0.00    +0.000 HD
ATOM     32  H   UNL     1       3.377  -9.012  12.704  0.00  0.00    +0.000 HD
ENDBRANCH  26  29
ENDBRANCH  23  26
ENDBRANCH  20  23
ENDBRANCH   1  20
TORSDOF 10
ENDMDL
MODEL 8
REMARK VINA RESULT:    -3.975     24.774     26.306
REMARK INTER + INTRA:          -6.739
REMARK INTER:                  -5.960
REMARK INTRA:                  -0.779
REMARK UNBOUND:                -0.673
REMARK  Name = 2969
REMARK  10 active torsions:
REMARK  status: ('A' for Active; 'I' for Inactive)
REMARK    1  A    between atoms: O_1  and  C_12
REMARK    2  A    between atoms: C_3  and  C_4
REMARK    3  A    between atoms: C_3  and  C_5
REMARK    4  A    between atoms: C_4  and  C_6
REMARK    5  A    between atoms: C_5  and  C_7
REMARK    6  A    between atoms: C_6  and  C_8
REMARK    7  A    between atoms: C_7  and  C_9
REMARK    8  A    between atoms: C_8  and  C_10
REMARK    9  A    between atoms: C_9  and  C_11
REMARK   10  A    between atoms: C_10  and  C_12
REMARK                            x       y       z     vdW  Elec       q    Type
REMARK                         _______ _______ _______ _____ _____    ______ ____
ROOT
ATOM      1  C   UNL     1      -3.767  -6.511  -9.641  0.00  0.00    +0.000 C 
ATOM      2  H   UNL     1      -3.479  -6.083 -10.610  0.00  0.00    +0.000 HD
ATOM      3  H   UNL     1      -3.462  -5.782  -8.880  0.00  0.00    +0.000 HD
ENDROOT
BRANCH   1   4
ATOM      4  C   UNL     1      -2.968  -7.800  -9.421  0.00  0.00    +0.000 C 
ATOM      5  H   UNL     1      -3.084  -8.103  -8.373  0.00  0.00    +0.000 HD
ATOM      6  H   UNL     1      -1.902  -7.579  -9.561  0.00  0.00    +0.000 HD
BRANCH   4   7
ATOM      7  C   UNL     1      -3.346  -8.980 -10.322  0.00  0.00    +0.000 C 
ATOM      8  H   UNL     1      -4.042  -8.634 -11.094  0.00  0.00    +0.000 HD
ATOM      9  H   UNL     1      -2.445  -9.332 -10.839  0.00  0.00    +0.000 HD
BRANCH   7  10
ATOM     10  C   UNL     1      -3.984 -10.146  -9.558  0.00  0.00    +0.000 C 
ATOM     11  H   UNL     1      -3.479 -11.081  -9.829  0.00  0.00    +0.000 HD
ATOM     12  H   UNL     1      -5.030 -10.256  -9.870  0.00  0.00    +0.000 HD
BRANCH  10  13
ATOM     13  C   UNL     1      -3.926  -9.950  -8.042  0.00  0.00    +0.000 C 
ATOM     14  H   UNL     1      -3.077 -10.512  -7.634  0.00  0.00    +0.000 HD
ATOM     15  H   UNL     1      -3.787  -8.887  -7.816  0.00  0.00    +0.000 HD
BRANCH  13  17
ATOM     16  O   UNL     1      -5.243 -10.759  -6.159  0.00  0.00    +0.000 OA
ATOM     17  C   UNL     1      -5.177 -10.416  -7.331  0.00  0.00    +0.000 C 
BRANCH  17  18
ATOM     18  O   UNL     1      -6.256 -10.388  -8.157  0.00  0.00    +0.000 OA
ATOM     19  H   UNL     1      -6.801 -11.200  -8.073  0.00  0.00    +0.000 HD
ENDBRANCH  17  18
ENDBRANCH  13  17
ENDBRANCH  10  13
ENDBRANCH   7  10
ENDBRANCH   4   7
ENDBRANCH   1   4
BRANCH   1  20
ATOM     20  C   UNL     1      -5.291  -6.656  -9.596  0.00  0.00    +0.000 C 
ATOM     21  H   UNL     1      -5.547  -7.722  -9.607  0.00  0.00    +0.000 HD
ATOM     22  H   UNL     1      -5.715  -6.219 -10.509  0.00  0.00    +0.000 HD
BRANCH  20  23
ATOM     23  C   UNL     1      -5.928  -5.997  -8.371  0.00  0.00    +0.000 C 
ATOM     24  H   UNL     1      -5.172  -5.872  -7.586  0.00  0.00    +0.000 HD
ATOM     25  H   UNL     1      -6.284  -4.996  -8.639  0.00  0.00    +0.000 HD
BRANCH  23  26
ATOM     26  C   UNL     1      -7.092  -6.832  -7.836  0.00  0.00    +0.000 C 
ATOM     27  H   UNL     1      -8.012  -6.236  -7.842  0.00  0.00    +0.000 HD
ATOM     28  H   UNL     1      -7.262  -7.696  -8.489  0.00  0.00    +0.000 HD
BRANCH  26  29
ATOM     29  C   UNL     1      -6.825  -7.318  -6.421  0.00  0.00    +0.000 C 
ATOM     30  H   UNL     1      -5.751  -7.349  -6.214  0.00  0.00    +0.000 HD
ATOM     31  H   UNL     1      -7.225  -8.328  -6.285  0.00  0.00    +0.000 HD
ATOM     32  H   UNL     1      -7.299  -6.663  -5.684  0.00  0.00    +0.000 HD
ENDBRANCH  26  29
ENDBRANCH  23  26
ENDBRANCH  20  23
ENDBRANCH   1  20
TORSDOF 10
ENDMDL
MODEL 9
REMARK VINA RESULT:    -3.967     16.060     17.389
REMARK INTER + INTRA:          -6.727
REMARK INTER:                  -6.428
REMARK INTRA:                  -0.299
REMARK UNBOUND:                -0.673
REMARK  Name = 2969
REMARK  10 active torsions:
REMARK  status: ('A' for Active; 'I' for Inactive)
REMARK    1  A    between atoms: O_1  and  C_12
REMARK    2  A    between atoms: C_3  and  C_4
REMARK    3  A    between atoms: C_3  and  C_5
REMARK    4  A    between atoms: C_4  and  C_6
REMARK    5  A    between atoms: C_5  and  C_7
REMARK    6  A    between atoms: C_6  and  C_8
REMARK    7  A    between atoms: C_7  and  C_9
REMARK    8  A    between atoms: C_8  and  C_10
REMARK    9  A    between atoms: C_9  and  C_11
REMARK   10  A    between atoms: C_10  and  C_12
REMARK                            x       y       z     vdW  Elec       q    Type
REMARK                         _______ _______ _______ _____ _____    ______ ____
ROOT
ATOM      1  C   UNL     1     -11.408 -14.879   7.976  0.00  0.00    +0.000 C 
ATOM      2  H   UNL     1     -11.476 -13.826   8.278  0.00  0.00    +0.000 HD
ATOM      3  H   UNL     1     -10.427 -15.234   8.314  0.00  0.00    +0.000 HD
ENDROOT
BRANCH   1   4
ATOM      4  C   UNL     1     -11.447 -14.952   6.446  0.00  0.00    +0.000 C 
ATOM      5  H   UNL     1     -12.148 -14.191   6.082  0.00  0.00    +0.000 HD
ATOM      6  H   UNL     1     -11.867 -15.923   6.153  0.00  0.00    +0.000 HD
BRANCH   4   7
ATOM      7  C   UNL     1     -10.103 -14.766   5.736  0.00  0.00    +0.000 C 
ATOM      8  H   UNL     1      -9.924 -15.622   5.075  0.00  0.00    +0.000 HD
ATOM      9  H   UNL     1     -10.161 -13.877   5.096  0.00  0.00    +0.000 HD
BRANCH   7  10
ATOM     10  C   UNL     1      -8.921 -14.623   6.701  0.00  0.00    +0.000 C 
ATOM     11  H   UNL     1      -8.961 -15.425   7.450  0.00  0.00    +0.000 HD
ATOM     12  H   UNL     1      -9.013 -13.679   7.251  0.00  0.00    +0.000 HD
BRANCH  10  13
ATOM     13  C   UNL     1      -7.573 -14.660   5.980  0.00  0.00    +0.000 C 
ATOM     14  H   UNL     1      -6.965 -15.478   6.383  0.00  0.00    +0.000 HD
ATOM     15  H   UNL     1      -7.735 -14.833   4.910  0.00  0.00    +0.000 HD
BRANCH  13  17
ATOM     16  O   UNL     1      -7.133 -12.276   5.729  0.00  0.00    +0.000 OA
ATOM     17  C   UNL     1      -6.782 -13.378   6.126  0.00  0.00    +0.000 C 
BRANCH  17  18
ATOM     18  O   UNL     1      -5.614 -13.590   6.788  0.00  0.00    +0.000 OA
ATOM     19  H   UNL     1      -4.872 -13.086   6.388  0.00  0.00    +0.000 HD
ENDBRANCH  17  18
ENDBRANCH  13  17
ENDBRANCH  10  13
ENDBRANCH   7  10
ENDBRANCH   4   7
ENDBRANCH   1   4
BRANCH   1  20
ATOM     20  C   UNL     1     -12.494 -15.675   8.708  0.00  0.00    +0.000 C 
ATOM     21  H   UNL     1     -12.114 -15.970   9.694  0.00  0.00    +0.000 HD
ATOM     22  H   UNL     1     -12.689 -16.601   8.154  0.00  0.00    +0.000 HD
BRANCH  20  23
ATOM     23  C   UNL     1     -13.801 -14.899   8.882  0.00  0.00    +0.000 C 
ATOM     24  H   UNL     1     -13.903 -14.164   8.075  0.00  0.00    +0.000 HD
ATOM     25  H   UNL     1     -14.649 -15.589   8.800  0.00  0.00    +0.000 HD
BRANCH  23  26
ATOM     26  C   UNL     1     -13.846 -14.187  10.235  0.00  0.00    +0.000 C 
ATOM     27  H   UNL     1     -14.215 -14.874  11.005  0.00  0.00    +0.000 HD
ATOM     28  H   UNL     1     -12.834 -13.883  10.529  0.00  0.00    +0.000 HD
BRANCH  26  29
ATOM     29  C   UNL     1     -14.744 -12.962  10.190  0.00  0.00    +0.000 C 
ATOM     30  H   UNL     1     -14.161 -12.044  10.315  0.00  0.00    +0.000 HD
ATOM     31  H   UNL     1     -15.485 -13.006  10.995  0.00  0.00    +0.000 HD
ATOM     32  H   UNL     1     -15.279 -12.902   9.238  0.00  0.00    +0.000 HD
ENDBRANCH  26  29
ENDBRANCH  23  26
ENDBRANCH  20  23
ENDBRANCH   1  20
TORSDOF 10
ENDMDL
MODEL 10
REMARK VINA RESULT:    -3.918      5.110      7.399
REMARK INTER + INTRA:          -6.652
REMARK INTER:                  -6.480
REMARK INTRA:                  -0.172
REMARK UNBOUND:                -0.673
REMARK  Name = 2969
REMARK  10 active torsions:
REMARK  status: ('A' for Active; 'I' for Inactive)
REMARK    1  A    between atoms: O_1  and  C_12
REMARK    2  A    between atoms: C_3  and  C_4
REMARK    3  A    between atoms: C_3  and  C_5
REMARK    4  A    between atoms: C_4  and  C_6
REMARK    5  A    between atoms: C_5  and  C_7
REMARK    6  A    between atoms: C_6  and  C_8
REMARK    7  A    between atoms: C_7  and  C_9
REMARK    8  A    between atoms: C_8  and  C_10
REMARK    9  A    between atoms: C_9  and  C_11
REMARK   10  A    between atoms: C_10  and  C_12
REMARK                            x       y       z     vdW  Elec       q    Type
REMARK                         _______ _______ _______ _____ _____    ______ ____
ROOT
ATOM      1  C   UNL     1      -0.374  -6.681  16.247  0.00  0.00    +0.000 C 
ATOM      2  H   UNL     1      -1.411  -6.747  15.895  0.00  0.00    +0.000 HD
ATOM      3  H   UNL     1       0.240  -7.202  15.502  0.00  0.00    +0.000 HD
ENDROOT
BRANCH   1   4
ATOM      4  C   UNL     1      -0.261  -7.435  17.576  0.00  0.00    +0.000 C 
ATOM      5  H   UNL     1      -1.269  -7.555  17.991  0.00  0.00    +0.000 HD
ATOM      6  H   UNL     1       0.292  -6.808  18.288  0.00  0.00    +0.000 HD
BRANCH   4   7
ATOM      7  C   UNL     1       0.414  -8.809  17.508  0.00  0.00    +0.000 C 
ATOM      8  H   UNL     1       1.112  -8.825  16.663  0.00  0.00    +0.000 HD
ATOM      9  H   UNL     1       1.011  -8.956  18.417  0.00  0.00    +0.000 HD
BRANCH   7  10
ATOM     10  C   UNL     1      -0.581  -9.966  17.358  0.00  0.00    +0.000 C 
ATOM     11  H   UNL     1      -0.368 -10.513  16.431  0.00  0.00    +0.000 HD
ATOM     12  H   UNL     1      -1.595  -9.563  17.256  0.00  0.00    +0.000 HD
BRANCH  10  13
ATOM     13  C   UNL     1      -0.536 -10.928  18.546  0.00  0.00    +0.000 C 
ATOM     14  H   UNL     1       0.434 -11.440  18.564  0.00  0.00    +0.000 HD
ATOM     15  H   UNL     1      -0.655 -10.365  19.479  0.00  0.00    +0.000 HD
BRANCH  13  17
ATOM     16  O   UNL     1      -2.176 -12.388  17.491  0.00  0.00    +0.000 OA
ATOM     17  C   UNL     1      -1.618 -11.984  18.501  0.00  0.00    +0.000 C 
BRANCH  17  18
ATOM     18  O   UNL     1      -1.895 -12.464  19.743  0.00  0.00    +0.000 OA
ATOM     19  H   UNL     1      -2.580 -13.166  19.719  0.00  0.00    +0.000 HD
ENDBRANCH  17  18
ENDBRANCH  13  17
ENDBRANCH  10  13
ENDBRANCH   7  10
ENDBRANCH   4   7
ENDBRANCH   1   4
BRANCH   1  20
ATOM     20  C   UNL     1       0.045  -5.208  16.280  0.00  0.00    +0.000 C 
ATOM     21  H   UNL     1       0.263  -4.923  17.316  0.00  0.00    +0.000 HD
ATOM     22  H   UNL     1      -0.802  -4.592  15.954  0.00  0.00    +0.000 HD
BRANCH  20  23
ATOM     23  C   UNL     1       1.263  -4.903  15.406  0.00  0.00    +0.000 C 
ATOM     24  H   UNL     1       2.153  -5.374  15.838  0.00  0.00    +0.000 HD
ATOM     25  H   UNL     1       1.117  -5.339  14.411  0.00  0.00    +0.000 HD
BRANCH  23  26
ATOM     26  C   UNL     1       1.490  -3.395  15.279  0.00  0.00    +0.000 C 
ATOM     27  H   UNL     1       1.321  -3.080  14.243  0.00  0.00    +0.000 HD
ATOM     28  H   UNL     1       0.767  -2.857  15.903  0.00  0.00    +0.000 HD
BRANCH  26  29
ATOM     29  C   UNL     1       2.899  -3.007  15.694  0.00  0.00    +0.000 C 
ATOM     30  H   UNL     1       3.328  -2.283  14.995  0.00  0.00    +0.000 HD
ATOM     31  H   UNL     1       3.546  -3.890  15.709  0.00  0.00    +0.000 HD
ATOM     32  H   UNL     1       2.905  -2.564  16.695  0.00  0.00    +0.000 HD
ENDBRANCH  26  29
ENDBRANCH  23  26
ENDBRANCH  20  23
ENDBRANCH   1  20
TORSDOF 10
ENDMDL
