MODEL 1
REMARK VINA RESULT:    -4.643      0.000      0.000
REMARK INTER + INTRA:          -8.735
REMARK INTER:                  -7.903
REMARK INTRA:                  -0.832
REMARK UNBOUND:                -1.106
REMARK  Name = 3893
REMARK  12 active torsions:
REMARK  status: ('A' for Active; 'I' for Inactive)
REMARK    1  A    between atoms: O_1  and  C_14
REMARK    2  A    between atoms: C_3  and  C_4
REMARK    3  A    between atoms: C_3  and  C_5
REMARK    4  A    between atoms: C_4  and  C_6
REMARK    5  A    between atoms: C_5  and  C_7
REMARK    6  A    between atoms: C_6  and  C_8
REMARK    7  A    between atoms: C_7  and  C_9
REMARK    8  A    between atoms: C_8  and  C_10
REMARK    9  A    between atoms: C_9  and  C_11
REMARK   10  A    between atoms: C_10  and  C_12
REMARK   11  A    between atoms: C_11  and  C_13
REMARK   12  A    between atoms: C_12  and  C_14
REMARK                            x       y       z     vdW  Elec       q    Type
REMARK                         _______ _______ _______ _____ _____    ______ ____
ROOT
ATOM      1  C   UNL     1       3.828 -11.648  -0.491  0.00  0.00    +0.000 C 
ATOM      2  H   UNL     1       3.974 -10.594  -0.756  0.00  0.00    +0.000 HD
ATOM      3  H   UNL     1       2.829 -11.935  -0.839  0.00  0.00    +0.000 HD
ENDROOT
BRANCH   1   4
ATOM      4  C   UNL     1       3.902 -11.808   1.030  0.00  0.00    +0.000 C 
ATOM      5  H   UNL     1       4.096 -12.860   1.275  0.00  0.00    +0.000 HD
ATOM      6  H   UNL     1       4.754 -11.232   1.411  0.00  0.00    +0.000 HD
BRANCH   4   7
ATOM      7  C   UNL     1       2.629 -11.356   1.752  0.00  0.00    +0.000 C 
ATOM      8  H   UNL     1       1.916 -10.971   1.012  0.00  0.00    +0.000 HD
ATOM      9  H   UNL     1       2.875 -10.521   2.419  0.00  0.00    +0.000 HD
BRANCH   7  10
ATOM     10  C   UNL     1       1.964 -12.470   2.564  0.00  0.00    +0.000 C 
ATOM     11  H   UNL     1       1.440 -13.157   1.889  0.00  0.00    +0.000 HD
ATOM     12  H   UNL     1       1.213 -12.036   3.234  0.00  0.00    +0.000 HD
BRANCH  10  13
ATOM     13  C   UNL     1       2.999 -13.247   3.385  0.00  0.00    +0.000 C 
ATOM     14  H   UNL     1       2.854 -13.028   4.451  0.00  0.00    +0.000 HD
ATOM     15  H   UNL     1       4.008 -12.899   3.129  0.00  0.00    +0.000 HD
BRANCH  13  16
ATOM     16  C   UNL     1       2.909 -14.755   3.161  0.00  0.00    +0.000 C 
ATOM     17  H   UNL     1       2.859 -15.271   4.127  0.00  0.00    +0.000 HD
ATOM     18  H   UNL     1       2.005 -14.988   2.588  0.00  0.00    +0.000 HD
BRANCH  16  20
ATOM     19  O   UNL     1       4.153 -15.378   1.187  0.00  0.00    +0.000 OA
ATOM     20  C   UNL     1       4.096 -15.299   2.408  0.00  0.00    +0.000 C 
BRANCH  20  21
ATOM     21  O   UNL     1       5.102 -15.688   3.229  0.00  0.00    +0.000 OA
ATOM     22  H   UNL     1       4.803 -15.772   4.160  0.00  0.00    +0.000 HD
ENDBRANCH  20  21
ENDBRANCH  16  20
ENDBRANCH  13  16
ENDBRANCH  10  13
ENDBRANCH   7  10
ENDBRANCH   4   7
ENDBRANCH   1   4
BRANCH   1  23
ATOM     23  C   UNL     1       4.884 -12.508  -1.191  0.00  0.00    +0.000 C 
ATOM     24  H   UNL     1       5.243 -11.991  -2.089  0.00  0.00    +0.000 HD
ATOM     25  H   UNL     1       4.434 -13.452  -1.520  0.00  0.00    +0.000 HD
BRANCH  23  26
ATOM     26  C   UNL     1       6.066 -12.797  -0.264  0.00  0.00    +0.000 C 
ATOM     27  H   UNL     1       6.306 -11.898   0.316  0.00  0.00    +0.000 HD
ATOM     28  H   UNL     1       5.776 -13.571   0.458  0.00  0.00    +0.000 HD
BRANCH  26  29
ATOM     29  C   UNL     1       7.324 -13.257  -1.007  0.00  0.00    +0.000 C 
ATOM     30  H   UNL     1       7.729 -14.142  -0.499  0.00  0.00    +0.000 HD
ATOM     31  H   UNL     1       7.035 -13.585  -2.013  0.00  0.00    +0.000 HD
BRANCH  29  32
ATOM     32  C   UNL     1       8.441 -12.216  -1.130  0.00  0.00    +0.000 C 
ATOM     33  H   UNL     1       9.350 -12.606  -0.657  0.00  0.00    +0.000 HD
ATOM     34  H   UNL     1       8.677 -12.064  -2.191  0.00  0.00    +0.000 HD
BRANCH  32  35
ATOM     35  C   UNL     1       8.095 -10.876  -0.502  0.00  0.00    +0.000 C 
ATOM     36  H   UNL     1       8.620 -10.061  -1.008  0.00  0.00    +0.000 HD
ATOM     37  H   UNL     1       7.019 -10.682  -0.562  0.00  0.00    +0.000 HD
ATOM     38  H   UNL     1       8.384 -10.864   0.554  0.00  0.00    +0.000 HD
ENDBRANCH  32  35
ENDBRANCH  29  32
ENDBRANCH  26  29
ENDBRANCH  23  26
ENDBRANCH   1  23
TORSDOF 12
ENDMDL
MODEL 2
REMARK VINA RESULT:    -4.568      2.670      5.715
REMARK INTER + INTRA:          -8.612
REMARK INTER:                  -7.680
REMARK INTRA:                  -0.932
REMARK UNBOUND:                -1.106
REMARK  Name = 3893
REMARK  12 active torsions:
REMARK  status: ('A' for Active; 'I' for Inactive)
REMARK    1  A    between atoms: O_1  and  C_14
REMARK    2  A    between atoms: C_3  and  C_4
REMARK    3  A    between atoms: C_3  and  C_5
REMARK    4  A    between atoms: C_4  and  C_6
REMARK    5  A    between atoms: C_5  and  C_7
REMARK    6  A    between atoms: C_6  and  C_8
REMARK    7  A    between atoms: C_7  and  C_9
REMARK    8  A    between atoms: C_8  and  C_10
REMARK    9  A    between atoms: C_9  and  C_11
REMARK   10  A    between atoms: C_10  and  C_12
REMARK   11  A    between atoms: C_11  and  C_13
REMARK   12  A    between atoms: C_12  and  C_14
REMARK                            x       y       z     vdW  Elec       q    Type
REMARK                         _______ _______ _______ _____ _____    ______ ____
ROOT
ATOM      1  C   UNL     1       3.398 -15.887   2.098  0.00  0.00    +0.000 C 
ATOM      2  H   UNL     1       3.585 -16.856   2.575  0.00  0.00    +0.000 HD
ATOM      3  H   UNL     1       3.092 -16.088   1.064  0.00  0.00    +0.000 HD
ENDROOT
BRANCH   1   4
ATOM      4  C   UNL     1       4.687 -15.060   2.096  0.00  0.00    +0.000 C 
ATOM      5  H   UNL     1       4.599 -14.250   2.831  0.00  0.00    +0.000 HD
ATOM      6  H   UNL     1       5.521 -15.694   2.421  0.00  0.00    +0.000 HD
BRANCH   4   7
ATOM      7  C   UNL     1       5.020 -14.456   0.729  0.00  0.00    +0.000 C 
ATOM      8  H   UNL     1       4.099 -14.075   0.272  0.00  0.00    +0.000 HD
ATOM      9  H   UNL     1       5.396 -15.249   0.071  0.00  0.00    +0.000 HD
BRANCH   7  10
ATOM     10  C   UNL     1       6.053 -13.328   0.799  0.00  0.00    +0.000 C 
ATOM     11  H   UNL     1       6.982 -13.705   1.245  0.00  0.00    +0.000 HD
ATOM     12  H   UNL     1       5.680 -12.530   1.451  0.00  0.00    +0.000 HD
BRANCH  10  13
ATOM     13  C   UNL     1       6.347 -12.762  -0.594  0.00  0.00    +0.000 C 
ATOM     14  H   UNL     1       5.838 -11.795  -0.706  0.00  0.00    +0.000 HD
ATOM     15  H   UNL     1       5.925 -13.426  -1.358  0.00  0.00    +0.000 HD
BRANCH  13  16
ATOM     16  C   UNL     1       7.841 -12.580  -0.848  0.00  0.00    +0.000 C 
ATOM     17  H   UNL     1       8.408 -13.325  -0.277  0.00  0.00    +0.000 HD
ATOM     18  H   UNL     1       8.053 -12.715  -1.914  0.00  0.00    +0.000 HD
BRANCH  16  20
ATOM     19  O   UNL     1       9.486 -10.979  -0.096  0.00  0.00    +0.000 OA
ATOM     20  C   UNL     1       8.334 -11.215  -0.439  0.00  0.00    +0.000 C 
BRANCH  20  21
ATOM     21  O   UNL     1       7.364 -10.270  -0.498  0.00  0.00    +0.000 OA
ATOM     22  H   UNL     1       7.660  -9.470  -0.984  0.00  0.00    +0.000 HD
ENDBRANCH  20  21
ENDBRANCH  16  20
ENDBRANCH  13  16
ENDBRANCH  10  13
ENDBRANCH   7  10
ENDBRANCH   4   7
ENDBRANCH   1   4
BRANCH   1  23
ATOM     23  C   UNL     1       2.272 -15.157   2.835  0.00  0.00    +0.000 C 
ATOM     24  H   UNL     1       1.893 -15.790   3.647  0.00  0.00    +0.000 HD
ATOM     25  H   UNL     1       1.436 -14.976   2.149  0.00  0.00    +0.000 HD
BRANCH  23  26
ATOM     26  C   UNL     1       2.759 -13.827   3.413  0.00  0.00    +0.000 C 
ATOM     27  H   UNL     1       2.570 -13.805   4.493  0.00  0.00    +0.000 HD
ATOM     28  H   UNL     1       3.845 -13.753   3.280  0.00  0.00    +0.000 HD
BRANCH  26  29
ATOM     29  C   UNL     1       2.096 -12.605   2.771  0.00  0.00    +0.000 C 
ATOM     30  H   UNL     1       1.430 -12.946   1.968  0.00  0.00    +0.000 HD
ATOM     31  H   UNL     1       1.455 -12.123   3.519  0.00  0.00    +0.000 HD
BRANCH  29  32
ATOM     32  C   UNL     1       3.051 -11.556   2.193  0.00  0.00    +0.000 C 
ATOM     33  H   UNL     1       3.160 -10.735   2.912  0.00  0.00    +0.000 HD
ATOM     34  H   UNL     1       4.046 -12.003   2.070  0.00  0.00    +0.000 HD
BRANCH  32  35
ATOM     35  C   UNL     1       2.595 -10.986   0.861  0.00  0.00    +0.000 C 
ATOM     36  H   UNL     1       1.519 -11.125   0.724  0.00  0.00    +0.000 HD
ATOM     37  H   UNL     1       2.814  -9.915   0.798  0.00  0.00    +0.000 HD
ATOM     38  H   UNL     1       3.111 -11.488   0.035  0.00  0.00    +0.000 HD
ENDBRANCH  32  35
ENDBRANCH  29  32
ENDBRANCH  26  29
ENDBRANCH  23  26
ENDBRANCH   1  23
TORSDOF 12
ENDMDL
MODEL 3
REMARK VINA RESULT:    -4.519     13.253     14.671
REMARK INTER + INTRA:          -8.531
REMARK INTER:                  -7.433
REMARK INTRA:                  -1.098
REMARK UNBOUND:                -1.106
REMARK  Name = 3893
REMARK  12 active torsions:
REMARK  status: ('A' for Active; 'I' for Inactive)
REMARK    1  A    between atoms: O_1  and  C_14
REMARK    2  A    between atoms: C_3  and  C_4
REMARK    3  A    between atoms: C_3  and  C_5
REMARK    4  A    between atoms: C_4  and  C_6
REMARK    5  A    between atoms: C_5  and  C_7
REMARK    6  A    between atoms: C_6  and  C_8
REMARK    7  A    between atoms: C_7  and  C_9
REMARK    8  A    between atoms: C_8  and  C_10
REMARK    9  A    between atoms: C_9  and  C_11
REMARK   10  A    between atoms: C_10  and  C_12
REMARK   11  A    between atoms: C_11  and  C_13
REMARK   12  A    between atoms: C_12  and  C_14
REMARK                            x       y       z     vdW  Elec       q    Type
REMARK                         _______ _______ _______ _____ _____    ______ ____
ROOT
ATOM      1  C   UNL     1      -5.250  -6.793 -10.526  0.00  0.00    +0.000 C 
ATOM      2  H   UNL     1      -5.079  -6.234 -11.455  0.00  0.00    +0.000 HD
ATOM      3  H   UNL     1      -5.360  -7.850 -10.800  0.00  0.00    +0.000 HD
ENDROOT
BRANCH   1   4
ATOM      4  C   UNL     1      -6.539  -6.302  -9.863  0.00  0.00    +0.000 C 
ATOM      5  H   UNL     1      -6.930  -5.443 -10.422  0.00  0.00    +0.000 HD
ATOM      6  H   UNL     1      -7.298  -7.091  -9.923  0.00  0.00    +0.000 HD
BRANCH   4   7
ATOM      7  C   UNL     1      -6.353  -5.897  -8.397  0.00  0.00    +0.000 C 
ATOM      8  H   UNL     1      -6.386  -4.803  -8.322  0.00  0.00    +0.000 HD
ATOM      9  H   UNL     1      -5.355  -6.208  -8.065  0.00  0.00    +0.000 HD
BRANCH   7  10
ATOM     10  C   UNL     1      -7.405  -6.500  -7.463  0.00  0.00    +0.000 C 
ATOM     11  H   UNL     1      -8.078  -7.150  -8.035  0.00  0.00    +0.000 HD
ATOM     12  H   UNL     1      -8.015  -5.697  -7.033  0.00  0.00    +0.000 HD
BRANCH  10  13
ATOM     13  C   UNL     1      -6.746  -7.306  -6.338  0.00  0.00    +0.000 C 
ATOM     14  H   UNL     1      -7.474  -7.460  -5.530  0.00  0.00    +0.000 HD
ATOM     15  H   UNL     1      -5.920  -6.728  -5.906  0.00  0.00    +0.000 HD
BRANCH  13  16
ATOM     16  C   UNL     1      -6.226  -8.659  -6.816  0.00  0.00    +0.000 C 
ATOM     17  H   UNL     1      -6.987  -9.152  -7.432  0.00  0.00    +0.000 HD
ATOM     18  H   UNL     1      -5.323  -8.513  -7.419  0.00  0.00    +0.000 HD
BRANCH  16  20
ATOM     19  O   UNL     1      -5.659 -10.779  -5.809  0.00  0.00    +0.000 OA
ATOM     20  C   UNL     1      -5.885  -9.583  -5.675  0.00  0.00    +0.000 C 
BRANCH  20  21
ATOM     21  O   UNL     1      -5.849  -8.945  -4.479  0.00  0.00    +0.000 OA
ATOM     22  H   UNL     1      -4.935  -8.691  -4.227  0.00  0.00    +0.000 HD
ENDBRANCH  20  21
ENDBRANCH  16  20
ENDBRANCH  13  16
ENDBRANCH  10  13
ENDBRANCH   7  10
ENDBRANCH   4   7
ENDBRANCH   1   4
BRANCH   1  23
ATOM     23  C   UNL     1      -4.046  -6.625  -9.595  0.00  0.00    +0.000 C 
ATOM     24  H   UNL     1      -4.383  -6.235  -8.626  0.00  0.00    +0.000 HD
ATOM     25  H   UNL     1      -3.352  -5.888 -10.016  0.00  0.00    +0.000 HD
BRANCH  23  26
ATOM     26  C   UNL     1      -3.320  -7.954  -9.383  0.00  0.00    +0.000 C 
ATOM     27  H   UNL     1      -2.322  -7.764  -8.969  0.00  0.00    +0.000 HD
ATOM     28  H   UNL     1      -3.864  -8.547  -8.639  0.00  0.00    +0.000 HD
BRANCH  26  29
ATOM     29  C   UNL     1      -3.173  -8.779 -10.666  0.00  0.00    +0.000 C 
ATOM     30  H   UNL     1      -3.575  -8.198 -11.506  0.00  0.00    +0.000 HD
ATOM     31  H   UNL     1      -2.104  -8.918 -10.870  0.00  0.00    +0.000 HD
BRANCH  29  32
ATOM     32  C   UNL     1      -3.854 -10.150 -10.655  0.00  0.00    +0.000 C 
ATOM     33  H   UNL     1      -4.774 -10.100 -11.250  0.00  0.00    +0.000 HD
ATOM     34  H   UNL     1      -3.200 -10.882 -11.145  0.00  0.00    +0.000 HD
BRANCH  32  35
ATOM     35  C   UNL     1      -4.197 -10.648  -9.261  0.00  0.00    +0.000 C 
ATOM     36  H   UNL     1      -3.322 -10.609  -8.606  0.00  0.00    +0.000 HD
ATOM     37  H   UNL     1      -4.990 -10.040  -8.813  0.00  0.00    +0.000 HD
ATOM     38  H   UNL     1      -4.547 -11.685  -9.302  0.00  0.00    +0.000 HD
ENDBRANCH  32  35
ENDBRANCH  29  32
ENDBRANCH  26  29
ENDBRANCH  23  26
ENDBRANCH   1  23
TORSDOF 12
ENDMDL
MODEL 4
REMARK VINA RESULT:    -4.421      3.529      5.827
REMARK INTER + INTRA:          -8.371
REMARK INTER:                  -7.786
REMARK INTRA:                  -0.585
REMARK UNBOUND:                -1.106
REMARK  Name = 3893
REMARK  12 active torsions:
REMARK  status: ('A' for Active; 'I' for Inactive)
REMARK    1  A    between atoms: O_1  and  C_14
REMARK    2  A    between atoms: C_3  and  C_4
REMARK    3  A    between atoms: C_3  and  C_5
REMARK    4  A    between atoms: C_4  and  C_6
REMARK    5  A    between atoms: C_5  and  C_7
REMARK    6  A    between atoms: C_6  and  C_8
REMARK    7  A    between atoms: C_7  and  C_9
REMARK    8  A    between atoms: C_8  and  C_10
REMARK    9  A    between atoms: C_9  and  C_11
REMARK   10  A    between atoms: C_10  and  C_12
REMARK   11  A    between atoms: C_11  and  C_13
REMARK   12  A    between atoms: C_12  and  C_14
REMARK                            x       y       z     vdW  Elec       q    Type
REMARK                         _______ _______ _______ _____ _____    ______ ____
ROOT
ATOM      1  C   UNL     1      10.347 -10.301  -1.581  0.00  0.00    +0.000 C 
ATOM      2  H   UNL     1       9.815 -10.575  -2.500  0.00  0.00    +0.000 HD
ATOM      3  H   UNL     1      10.898 -11.190  -1.248  0.00  0.00    +0.000 HD
ENDROOT
BRANCH   1   4
ATOM      4  C   UNL     1       9.336  -9.897  -0.505  0.00  0.00    +0.000 C 
ATOM      5  H   UNL     1       9.782 -10.047   0.487  0.00  0.00    +0.000 HD
ATOM      6  H   UNL     1       9.121  -8.826  -0.597  0.00  0.00    +0.000 HD
BRANCH   4   7
ATOM      7  C   UNL     1       8.021 -10.679  -0.581  0.00  0.00    +0.000 C 
ATOM      8  H   UNL     1       7.406 -10.266  -1.390  0.00  0.00    +0.000 HD
ATOM      9  H   UNL     1       7.463 -10.529   0.351  0.00  0.00    +0.000 HD
BRANCH   7  10
ATOM     10  C   UNL     1       8.220 -12.180  -0.813  0.00  0.00    +0.000 C 
ATOM     11  H   UNL     1       9.226 -12.473  -0.489  0.00  0.00    +0.000 HD
ATOM     12  H   UNL     1       8.147 -12.397  -1.884  0.00  0.00    +0.000 HD
BRANCH  10  13
ATOM     13  C   UNL     1       7.175 -12.999  -0.047  0.00  0.00    +0.000 C 
ATOM     14  H   UNL     1       7.613 -13.354   0.895  0.00  0.00    +0.000 HD
ATOM     15  H   UNL     1       6.913 -13.894  -0.626  0.00  0.00    +0.000 HD
BRANCH  13  16
ATOM     16  C   UNL     1       5.910 -12.198   0.252  0.00  0.00    +0.000 C 
ATOM     17  H   UNL     1       6.101 -11.130   0.092  0.00  0.00    +0.000 HD
ATOM     18  H   UNL     1       5.105 -12.518  -0.419  0.00  0.00    +0.000 HD
BRANCH  16  20
ATOM     19  O   UNL     1       4.261 -12.492   1.991  0.00  0.00    +0.000 OA
ATOM     20  C   UNL     1       5.437 -12.375   1.672  0.00  0.00    +0.000 C 
BRANCH  20  21
ATOM     21  O   UNL     1       6.459 -12.397   2.564  0.00  0.00    +0.000 OA
ATOM     22  H   UNL     1       7.087 -11.657   2.420  0.00  0.00    +0.000 HD
ENDBRANCH  20  21
ENDBRANCH  16  20
ENDBRANCH  13  16
ENDBRANCH  10  13
ENDBRANCH   7  10
ENDBRANCH   4   7
ENDBRANCH   1   4
BRANCH   1  23
ATOM     23  C   UNL     1      11.331  -9.165  -1.873  0.00  0.00    +0.000 C 
ATOM     24  H   UNL     1      11.872  -8.901  -0.956  0.00  0.00    +0.000 HD
ATOM     25  H   UNL     1      10.780  -8.272  -2.191  0.00  0.00    +0.000 HD
BRANCH  23  26
ATOM     26  C   UNL     1      12.332  -9.564  -2.957  0.00  0.00    +0.000 C 
ATOM     27  H   UNL     1      12.612  -8.680  -3.542  0.00  0.00    +0.000 HD
ATOM     28  H   UNL     1      13.250  -9.932  -2.482  0.00  0.00    +0.000 HD
BRANCH  26  29
ATOM     29  C   UNL     1      11.802 -10.639  -3.911  0.00  0.00    +0.000 C 
ATOM     30  H   UNL     1      12.494 -11.491  -3.901  0.00  0.00    +0.000 HD
ATOM     31  H   UNL     1      10.848 -11.013  -3.518  0.00  0.00    +0.000 HD
BRANCH  29  32
ATOM     32  C   UNL     1      11.597 -10.198  -5.363  0.00  0.00    +0.000 C 
ATOM     33  H   UNL     1      12.247 -10.794  -6.015  0.00  0.00    +0.000 HD
ATOM     34  H   UNL     1      10.564 -10.413  -5.663  0.00  0.00    +0.000 HD
BRANCH  32  35
ATOM     35  C   UNL     1      11.884  -8.724  -5.597  0.00  0.00    +0.000 C 
ATOM     36  H   UNL     1      12.718  -8.385  -4.974  0.00  0.00    +0.000 HD
ATOM     37  H   UNL     1      12.140  -8.537  -6.645  0.00  0.00    +0.000 HD
ATOM     38  H   UNL     1      11.005  -8.120  -5.348  0.00  0.00    +0.000 HD
ENDBRANCH  32  35
ENDBRANCH  29  32
ENDBRANCH  26  29
ENDBRANCH  23  26
ENDBRANCH   1  23
TORSDOF 12
ENDMDL
MODEL 5
REMARK VINA RESULT:    -4.238     12.736     14.713
REMARK INTER + INTRA:          -8.070
REMARK INTER:                  -6.933
REMARK INTRA:                  -1.137
REMARK UNBOUND:                -1.106
REMARK  Name = 3893
REMARK  12 active torsions:
REMARK  status: ('A' for Active; 'I' for Inactive)
REMARK    1  A    between atoms: O_1  and  C_14
REMARK    2  A    between atoms: C_3  and  C_4
REMARK    3  A    between atoms: C_3  and  C_5
REMARK    4  A    between atoms: C_4  and  C_6
REMARK    5  A    between atoms: C_5  and  C_7
REMARK    6  A    between atoms: C_6  and  C_8
REMARK    7  A    between atoms: C_7  and  C_9
REMARK    8  A    between atoms: C_8  and  C_10
REMARK    9  A    between atoms: C_9  and  C_11
REMARK   10  A    between atoms: C_10  and  C_12
REMARK   11  A    between atoms: C_11  and  C_13
REMARK   12  A    between atoms: C_12  and  C_14
REMARK                            x       y       z     vdW  Elec       q    Type
REMARK                         _______ _______ _______ _____ _____    ______ ____
ROOT
ATOM      1  C   UNL     1      -5.536  -6.642 -10.367  0.00  0.00    +0.000 C 
ATOM      2  H   UNL     1      -5.671  -7.673 -10.716  0.00  0.00    +0.000 HD
ATOM      3  H   UNL     1      -5.498  -6.001 -11.257  0.00  0.00    +0.000 HD
ENDROOT
BRANCH   1   4
ATOM      4  C   UNL     1      -4.215  -6.528  -9.602  0.00  0.00    +0.000 C 
ATOM      5  H   UNL     1      -3.800  -5.522  -9.744  0.00  0.00    +0.000 HD
ATOM      6  H   UNL     1      -4.410  -6.642  -8.529  0.00  0.00    +0.000 HD
BRANCH   4   7
ATOM      7  C   UNL     1      -3.171  -7.563 -10.034  0.00  0.00    +0.000 C 
ATOM      8  H   UNL     1      -2.267  -7.039 -10.368  0.00  0.00    +0.000 HD
ATOM      9  H   UNL     1      -3.555  -8.117 -10.898  0.00  0.00    +0.000 HD
BRANCH   7  10
ATOM     10  C   UNL     1      -2.802  -8.552  -8.925  0.00  0.00    +0.000 C 
ATOM     11  H   UNL     1      -2.705  -8.018  -7.972  0.00  0.00    +0.000 HD
ATOM     12  H   UNL     1      -1.828  -9.003  -9.146  0.00  0.00    +0.000 HD
BRANCH  10  13
ATOM     13  C   UNL     1      -3.862  -9.651  -8.792  0.00  0.00    +0.000 C 
ATOM     14  H   UNL     1      -3.489 -10.571  -9.261  0.00  0.00    +0.000 HD
ATOM     15  H   UNL     1      -4.763  -9.362  -9.346  0.00  0.00    +0.000 HD
BRANCH  13  16
ATOM     16  C   UNL     1      -4.227  -9.937  -7.338  0.00  0.00    +0.000 C 
ATOM     17  H   UNL     1      -3.382  -9.685  -6.686  0.00  0.00    +0.000 HD
ATOM     18  H   UNL     1      -5.090  -9.327  -7.049  0.00  0.00    +0.000 HD
BRANCH  16  20
ATOM     19  O   UNL     1      -5.160 -11.795  -6.108  0.00  0.00    +0.000 OA
ATOM     20  C   UNL     1      -4.575 -11.385  -7.103  0.00  0.00    +0.000 C 
BRANCH  20  21
ATOM     21  O   UNL     1      -4.175 -12.189  -8.119  0.00  0.00    +0.000 OA
ATOM     22  H   UNL     1      -3.250 -12.004  -8.391  0.00  0.00    +0.000 HD
ENDBRANCH  20  21
ENDBRANCH  16  20
ENDBRANCH  13  16
ENDBRANCH  10  13
ENDBRANCH   7  10
ENDBRANCH   4   7
ENDBRANCH   1   4
BRANCH   1  23
ATOM     23  C   UNL     1      -6.723  -6.235  -9.489  0.00  0.00    +0.000 C 
ATOM     24  H   UNL     1      -7.561  -6.920  -9.664  0.00  0.00    +0.000 HD
ATOM     25  H   UNL     1      -7.063  -5.231  -9.768  0.00  0.00    +0.000 HD
BRANCH  23  26
ATOM     26  C   UNL     1      -6.348  -6.258  -8.007  0.00  0.00    +0.000 C 
ATOM     27  H   UNL     1      -5.261  -6.364  -7.905  0.00  0.00    +0.000 HD
ATOM     28  H   UNL     1      -6.616  -5.296  -7.553  0.00  0.00    +0.000 HD
BRANCH  26  29
ATOM     29  C   UNL     1      -7.030  -7.384  -7.223  0.00  0.00    +0.000 C 
ATOM     30  H   UNL     1      -8.115  -7.219  -7.243  0.00  0.00    +0.000 HD
ATOM     31  H   UNL     1      -6.852  -8.331  -7.748  0.00  0.00    +0.000 HD
BRANCH  29  32
ATOM     32  C   UNL     1      -6.590  -7.540  -5.765  0.00  0.00    +0.000 C 
ATOM     33  H   UNL     1      -5.496  -7.487  -5.711  0.00  0.00    +0.000 HD
ATOM     34  H   UNL     1      -6.977  -6.697  -5.179  0.00  0.00    +0.000 HD
BRANCH  32  35
ATOM     35  C   UNL     1      -7.051  -8.840  -5.126  0.00  0.00    +0.000 C 
ATOM     36  H   UNL     1      -8.135  -8.841  -4.981  0.00  0.00    +0.000 HD
ATOM     37  H   UNL     1      -6.787  -9.698  -5.753  0.00  0.00    +0.000 HD
ATOM     38  H   UNL     1      -6.575  -8.974  -4.149  0.00  0.00    +0.000 HD
ENDBRANCH  32  35
ENDBRANCH  29  32
ENDBRANCH  26  29
ENDBRANCH  23  26
ENDBRANCH   1  23
TORSDOF 12
ENDMDL
MODEL 6
REMARK VINA RESULT:    -4.223     25.248     26.704
REMARK INTER + INTRA:          -8.044
REMARK INTER:                  -7.544
REMARK INTRA:                  -0.500
REMARK UNBOUND:                -1.106
REMARK  Name = 3893
REMARK  12 active torsions:
REMARK  status: ('A' for Active; 'I' for Inactive)
REMARK    1  A    between atoms: O_1  and  C_14
REMARK    2  A    between atoms: C_3  and  C_4
REMARK    3  A    between atoms: C_3  and  C_5
REMARK    4  A    between atoms: C_4  and  C_6
REMARK    5  A    between atoms: C_5  and  C_7
REMARK    6  A    between atoms: C_6  and  C_8
REMARK    7  A    between atoms: C_7  and  C_9
REMARK    8  A    between atoms: C_8  and  C_10
REMARK    9  A    between atoms: C_9  and  C_11
REMARK   10  A    between atoms: C_10  and  C_12
REMARK   11  A    between atoms: C_11  and  C_13
REMARK   12  A    between atoms: C_12  and  C_14
REMARK                            x       y       z     vdW  Elec       q    Type
REMARK                         _______ _______ _______ _____ _____    ______ ____
ROOT
ATOM      1  C   UNL     1       6.169  12.755  -0.489  0.00  0.00    +0.000 C 
ATOM      2  H   UNL     1       6.164  12.309  -1.491  0.00  0.00    +0.000 HD
ATOM      3  H   UNL     1       5.358  13.493  -0.459  0.00  0.00    +0.000 HD
ENDROOT
BRANCH   1   4
ATOM      4  C   UNL     1       7.507  13.458  -0.247  0.00  0.00    +0.000 C 
ATOM      5  H   UNL     1       7.326  14.521  -0.044  0.00  0.00    +0.000 HD
ATOM      6  H   UNL     1       7.976  13.040   0.651  0.00  0.00    +0.000 HD
BRANCH   4   7
ATOM      7  C   UNL     1       8.480  13.336  -1.424  0.00  0.00    +0.000 C 
ATOM      8  H   UNL     1       9.476  13.662  -1.099  0.00  0.00    +0.000 HD
ATOM      9  H   UNL     1       8.165  14.023  -2.219  0.00  0.00    +0.000 HD
BRANCH   7  10
ATOM     10  C   UNL     1       8.572  11.918  -1.992  0.00  0.00    +0.000 C 
ATOM     11  H   UNL     1       7.585  11.441  -1.956  0.00  0.00    +0.000 HD
ATOM     12  H   UNL     1       9.246  11.318  -1.370  0.00  0.00    +0.000 HD
BRANCH  10  13
ATOM     13  C   UNL     1       9.081  11.934  -3.437  0.00  0.00    +0.000 C 
ATOM     14  H   UNL     1       8.991  10.926  -3.863  0.00  0.00    +0.000 HD
ATOM     15  H   UNL     1      10.150  12.182  -3.448  0.00  0.00    +0.000 HD
BRANCH  13  16
ATOM     16  C   UNL     1       8.320  12.926  -4.313  0.00  0.00    +0.000 C 
ATOM     17  H   UNL     1       7.256  12.663  -4.332  0.00  0.00    +0.000 HD
ATOM     18  H   UNL     1       8.429  13.936  -3.904  0.00  0.00    +0.000 HD
BRANCH  16  20
ATOM     19  O   UNL     1       9.544  13.809  -6.199  0.00  0.00    +0.000 OA
ATOM     20  C   UNL     1       8.817  12.938  -5.736  0.00  0.00    +0.000 C 
BRANCH  20  21
ATOM     21  O   UNL     1       8.377  11.875  -6.453  0.00  0.00    +0.000 OA
ATOM     22  H   UNL     1       7.402  11.774  -6.397  0.00  0.00    +0.000 HD
ENDBRANCH  20  21
ENDBRANCH  16  20
ENDBRANCH  13  16
ENDBRANCH  10  13
ENDBRANCH   7  10
ENDBRANCH   4   7
ENDBRANCH   1   4
BRANCH   1  23
ATOM     23  C   UNL     1       5.916  11.668   0.559  0.00  0.00    +0.000 C 
ATOM     24  H   UNL     1       6.873  11.308   0.955  0.00  0.00    +0.000 HD
ATOM     25  H   UNL     1       5.416  10.811   0.092  0.00  0.00    +0.000 HD
BRANCH  23  26
ATOM     26  C   UNL     1       5.058  12.198   1.710  0.00  0.00    +0.000 C 
ATOM     27  H   UNL     1       4.626  13.166   1.429  0.00  0.00    +0.000 HD
ATOM     28  H   UNL     1       4.218  11.513   1.877  0.00  0.00    +0.000 HD
BRANCH  26  29
ATOM     29  C   UNL     1       5.832  12.363   3.021  0.00  0.00    +0.000 C 
ATOM     30  H   UNL     1       6.526  11.520   3.129  0.00  0.00    +0.000 HD
ATOM     31  H   UNL     1       6.452  13.266   2.948  0.00  0.00    +0.000 HD
BRANCH  29  32
ATOM     32  C   UNL     1       4.980  12.453   4.290  0.00  0.00    +0.000 C 
ATOM     33  H   UNL     1       4.781  11.441   4.662  0.00  0.00    +0.000 HD
ATOM     34  H   UNL     1       5.549  12.972   5.071  0.00  0.00    +0.000 HD
BRANCH  32  35
ATOM     35  C   UNL     1       3.655  13.170   4.083  0.00  0.00    +0.000 C 
ATOM     36  H   UNL     1       2.910  12.830   4.808  0.00  0.00    +0.000 HD
ATOM     37  H   UNL     1       3.775  14.253   4.195  0.00  0.00    +0.000 HD
ATOM     38  H   UNL     1       3.268  12.973   3.078  0.00  0.00    +0.000 HD
ENDBRANCH  32  35
ENDBRANCH  29  32
ENDBRANCH  26  29
ENDBRANCH  23  26
ENDBRANCH   1  23
TORSDOF 12
ENDMDL
MODEL 7
REMARK VINA RESULT:    -4.221     25.474     26.933
REMARK INTER + INTRA:          -8.041
REMARK INTER:                  -7.051
REMARK INTRA:                  -0.991
REMARK UNBOUND:                -1.106
REMARK  Name = 3893
REMARK  12 active torsions:
REMARK  status: ('A' for Active; 'I' for Inactive)
REMARK    1  A    between atoms: O_1  and  C_14
REMARK    2  A    between atoms: C_3  and  C_4
REMARK    3  A    between atoms: C_3  and  C_5
REMARK    4  A    between atoms: C_4  and  C_6
REMARK    5  A    between atoms: C_5  and  C_7
REMARK    6  A    between atoms: C_6  and  C_8
REMARK    7  A    between atoms: C_7  and  C_9
REMARK    8  A    between atoms: C_8  and  C_10
REMARK    9  A    between atoms: C_9  and  C_11
REMARK   10  A    between atoms: C_10  and  C_12
REMARK   11  A    between atoms: C_11  and  C_13
REMARK   12  A    between atoms: C_12  and  C_14
REMARK                            x       y       z     vdW  Elec       q    Type
REMARK                         _______ _______ _______ _____ _____    ______ ____
ROOT
ATOM      1  C   UNL     1      10.029  13.516  -5.080  0.00  0.00    +0.000 C 
ATOM      2  H   UNL     1      10.830  14.238  -4.874  0.00  0.00    +0.000 HD
ATOM      3  H   UNL     1       9.085  14.074  -5.092  0.00  0.00    +0.000 HD
ENDROOT
BRANCH   1   4
ATOM      4  C   UNL     1       9.986  12.469  -3.964  0.00  0.00    +0.000 C 
ATOM      5  H   UNL     1      10.356  11.511  -4.352  0.00  0.00    +0.000 HD
ATOM      6  H   UNL     1      10.669  12.770  -3.161  0.00  0.00    +0.000 HD
BRANCH   4   7
ATOM      7  C   UNL     1       8.586  12.261  -3.379  0.00  0.00    +0.000 C 
ATOM      8  H   UNL     1       8.649  11.547  -2.548  0.00  0.00    +0.000 HD
ATOM      9  H   UNL     1       7.945  11.804  -4.142  0.00  0.00    +0.000 HD
BRANCH   7  10
ATOM     10  C   UNL     1       7.936  13.556  -2.885  0.00  0.00    +0.000 C 
ATOM     11  H   UNL     1       7.571  14.135  -3.741  0.00  0.00    +0.000 HD
ATOM     12  H   UNL     1       8.686  14.169  -2.372  0.00  0.00    +0.000 HD
BRANCH  10  13
ATOM     13  C   UNL     1       6.772  13.260  -1.932  0.00  0.00    +0.000 C 
ATOM     14  H   UNL     1       5.982  12.730  -2.480  0.00  0.00    +0.000 HD
ATOM     15  H   UNL     1       6.332  14.203  -1.585  0.00  0.00    +0.000 HD
BRANCH  13  16
ATOM     16  C   UNL     1       7.201  12.425  -0.728  0.00  0.00    +0.000 C 
ATOM     17  H   UNL     1       7.547  11.441  -1.064  0.00  0.00    +0.000 HD
ATOM     18  H   UNL     1       8.020  12.929  -0.205  0.00  0.00    +0.000 HD
BRANCH  16  20
ATOM     19  O   UNL     1       4.943  11.877  -0.067  0.00  0.00    +0.000 OA
ATOM     20  C   UNL     1       6.078  12.209   0.254  0.00  0.00    +0.000 C 
BRANCH  20  21
ATOM     21  O   UNL     1       6.460  12.416   1.538  0.00  0.00    +0.000 OA
ATOM     22  H   UNL     1       5.764  12.145   2.176  0.00  0.00    +0.000 HD
ENDBRANCH  20  21
ENDBRANCH  16  20
ENDBRANCH  13  16
ENDBRANCH  10  13
ENDBRANCH   7  10
ENDBRANCH   4   7
ENDBRANCH   1   4
BRANCH   1  23
ATOM     23  C   UNL     1      10.261  12.864  -6.445  0.00  0.00    +0.000 C 
ATOM     24  H   UNL     1      10.303  11.774  -6.330  0.00  0.00    +0.000 HD
ATOM     25  H   UNL     1      11.228  13.184  -6.849  0.00  0.00    +0.000 HD
BRANCH  23  26
ATOM     26  C   UNL     1       9.147  13.228  -7.429  0.00  0.00    +0.000 C 
ATOM     27  H   UNL     1       9.564  13.311  -8.440  0.00  0.00    +0.000 HD
ATOM     28  H   UNL     1       8.411  12.416  -7.456  0.00  0.00    +0.000 HD
BRANCH  26  29
ATOM     29  C   UNL     1       8.432  14.537  -7.081  0.00  0.00    +0.000 C 
ATOM     30  H   UNL     1       8.746  14.854  -6.079  0.00  0.00    +0.000 HD
ATOM     31  H   UNL     1       8.775  15.316  -7.773  0.00  0.00    +0.000 HD
BRANCH  29  32
ATOM     32  C   UNL     1       6.901  14.488  -7.116  0.00  0.00    +0.000 C 
ATOM     33  H   UNL     1       6.504  15.470  -6.835  0.00  0.00    +0.000 HD
ATOM     34  H   UNL     1       6.570  14.294  -8.143  0.00  0.00    +0.000 HD
BRANCH  32  35
ATOM     35  C   UNL     1       6.306  13.435  -6.196  0.00  0.00    +0.000 C 
ATOM     36  H   UNL     1       6.907  13.324  -5.289  0.00  0.00    +0.000 HD
ATOM     37  H   UNL     1       5.286  13.704  -5.902  0.00  0.00    +0.000 HD
ATOM     38  H   UNL     1       6.269  12.464  -6.701  0.00  0.00    +0.000 HD
ENDBRANCH  32  35
ENDBRANCH  29  32
ENDBRANCH  26  29
ENDBRANCH  23  26
ENDBRANCH   1  23
TORSDOF 12
ENDMDL
MODEL 8
REMARK VINA RESULT:    -4.041     12.989     14.558
REMARK INTER + INTRA:          -7.747
REMARK INTER:                  -6.643
REMARK INTRA:                  -1.104
REMARK UNBOUND:                -1.106
REMARK  Name = 3893
REMARK  12 active torsions:
REMARK  status: ('A' for Active; 'I' for Inactive)
REMARK    1  A    between atoms: O_1  and  C_14
REMARK    2  A    between atoms: C_3  and  C_4
REMARK    3  A    between atoms: C_3  and  C_5
REMARK    4  A    between atoms: C_4  and  C_6
REMARK    5  A    between atoms: C_5  and  C_7
REMARK    6  A    between atoms: C_6  and  C_8
REMARK    7  A    between atoms: C_7  and  C_9
REMARK    8  A    between atoms: C_8  and  C_10
REMARK    9  A    between atoms: C_9  and  C_11
REMARK   10  A    between atoms: C_10  and  C_12
REMARK   11  A    between atoms: C_11  and  C_13
REMARK   12  A    between atoms: C_12  and  C_14
REMARK                            x       y       z     vdW  Elec       q    Type
REMARK                         _______ _______ _______ _____ _____    ______ ____
ROOT
ATOM      1  C   UNL     1      -2.993  -8.664  -9.233  0.00  0.00    +0.000 C 
ATOM      2  H   UNL     1      -2.075  -9.085  -9.661  0.00  0.00    +0.000 HD
ATOM      3  H   UNL     1      -2.705  -8.109  -8.331  0.00  0.00    +0.000 HD
ENDROOT
BRANCH   1   4
ATOM      4  C   UNL     1      -3.946  -9.798  -8.848  0.00  0.00    +0.000 C 
ATOM      5  H   UNL     1      -4.885  -9.688  -9.406  0.00  0.00    +0.000 HD
ATOM      6  H   UNL     1      -3.508 -10.756  -9.155  0.00  0.00    +0.000 HD
BRANCH   4   7
ATOM      7  C   UNL     1      -4.260  -9.848  -7.350  0.00  0.00    +0.000 C 
ATOM      8  H   UNL     1      -3.587  -9.163  -6.821  0.00  0.00    +0.000 HD
ATOM      9  H   UNL     1      -4.047 -10.856  -6.975  0.00  0.00    +0.000 HD
BRANCH   7  10
ATOM     10  C   UNL     1      -5.711  -9.486  -7.022  0.00  0.00    +0.000 C 
ATOM     11  H   UNL     1      -6.334 -10.387  -7.060  0.00  0.00    +0.000 HD
ATOM     12  H   UNL     1      -6.095  -8.792  -7.779  0.00  0.00    +0.000 HD
BRANCH  10  13
ATOM     13  C   UNL     1      -5.819  -8.846  -5.633  0.00  0.00    +0.000 C 
ATOM     14  H   UNL     1      -5.544  -7.786  -5.702  0.00  0.00    +0.000 HD
ATOM     15  H   UNL     1      -5.093  -9.313  -4.956  0.00  0.00    +0.000 HD
BRANCH  13  16
ATOM     16  C   UNL     1      -7.221  -8.970  -5.041  0.00  0.00    +0.000 C 
ATOM     17  H   UNL     1      -7.274  -8.418  -4.095  0.00  0.00    +0.000 HD
ATOM     18  H   UNL     1      -7.953  -8.548  -5.739  0.00  0.00    +0.000 HD
BRANCH  16  20
ATOM     19  O   UNL     1      -6.911 -11.184  -4.129  0.00  0.00    +0.000 OA
ATOM     20  C   UNL     1      -7.606 -10.400  -4.763  0.00  0.00    +0.000 C 
BRANCH  20  21
ATOM     21  O   UNL     1      -8.813 -10.727  -5.287  0.00  0.00    +0.000 OA
ATOM     22  H   UNL     1      -8.726 -11.286  -6.089  0.00  0.00    +0.000 HD
ENDBRANCH  20  21
ENDBRANCH  16  20
ENDBRANCH  13  16
ENDBRANCH  10  13
ENDBRANCH   7  10
ENDBRANCH   4   7
ENDBRANCH   1   4
BRANCH   1  23
ATOM     23  C   UNL     1      -3.642  -7.711 -10.239  0.00  0.00    +0.000 C 
ATOM     24  H   UNL     1      -4.473  -8.218 -10.743  0.00  0.00    +0.000 HD
ATOM     25  H   UNL     1      -2.914  -7.437 -11.012  0.00  0.00    +0.000 HD
BRANCH  23  26
ATOM     26  C   UNL     1      -4.160  -6.447  -9.551  0.00  0.00    +0.000 C 
ATOM     27  H   UNL     1      -3.688  -6.347  -8.566  0.00  0.00    +0.000 HD
ATOM     28  H   UNL     1      -3.859  -5.569 -10.136  0.00  0.00    +0.000 HD
BRANCH  26  29
ATOM     29  C   UNL     1      -5.681  -6.429  -9.374  0.00  0.00    +0.000 C 
ATOM     30  H   UNL     1      -6.117  -5.777 -10.142  0.00  0.00    +0.000 HD
ATOM     31  H   UNL     1      -6.066  -7.437  -9.571  0.00  0.00    +0.000 HD
BRANCH  29  32
ATOM     32  C   UNL     1      -6.186  -5.968  -8.004  0.00  0.00    +0.000 C 
ATOM     33  H   UNL     1      -5.973  -6.746  -7.262  0.00  0.00    +0.000 HD
ATOM     34  H   UNL     1      -5.629  -5.075  -7.696  0.00  0.00    +0.000 HD
BRANCH  32  35
ATOM     35  C   UNL     1      -7.674  -5.658  -7.978  0.00  0.00    +0.000 C 
ATOM     36  H   UNL     1      -8.051  -5.643  -6.951  0.00  0.00    +0.000 HD
ATOM     37  H   UNL     1      -7.878  -4.684  -8.434  0.00  0.00    +0.000 HD
ATOM     38  H   UNL     1      -8.232  -6.418  -8.535  0.00  0.00    +0.000 HD
ENDBRANCH  32  35
ENDBRANCH  29  32
ENDBRANCH  26  29
ENDBRANCH  23  26
ENDBRANCH   1  23
TORSDOF 12
ENDMDL
MODEL 9
REMARK VINA RESULT:    -4.011     12.998     14.521
REMARK INTER + INTRA:          -7.697
REMARK INTER:                  -6.590
REMARK INTRA:                  -1.106
REMARK UNBOUND:                -1.106
REMARK  Name = 3893
REMARK  12 active torsions:
REMARK  status: ('A' for Active; 'I' for Inactive)
REMARK    1  A    between atoms: O_1  and  C_14
REMARK    2  A    between atoms: C_3  and  C_4
REMARK    3  A    between atoms: C_3  and  C_5
REMARK    4  A    between atoms: C_4  and  C_6
REMARK    5  A    between atoms: C_5  and  C_7
REMARK    6  A    between atoms: C_6  and  C_8
REMARK    7  A    between atoms: C_7  and  C_9
REMARK    8  A    between atoms: C_8  and  C_10
REMARK    9  A    between atoms: C_9  and  C_11
REMARK   10  A    between atoms: C_10  and  C_12
REMARK   11  A    between atoms: C_11  and  C_13
REMARK   12  A    between atoms: C_12  and  C_14
REMARK                            x       y       z     vdW  Elec       q    Type
REMARK                         _______ _______ _______ _____ _____    ______ ____
ROOT
ATOM      1  C   UNL     1      -5.792  -6.030  -8.543  0.00  0.00    +0.000 C 
ATOM      2  H   UNL     1      -5.052  -6.721  -8.119  0.00  0.00    +0.000 HD
ATOM      3  H   UNL     1      -5.328  -5.037  -8.574  0.00  0.00    +0.000 HD
ENDROOT
BRANCH   1   4
ATOM      4  C   UNL     1      -7.027  -5.987  -7.639  0.00  0.00    +0.000 C 
ATOM      5  H   UNL     1      -7.044  -5.035  -7.093  0.00  0.00    +0.000 HD
ATOM      6  H   UNL     1      -7.930  -6.010  -8.261  0.00  0.00    +0.000 HD
BRANCH   4   7
ATOM      7  C   UNL     1      -7.084  -7.138  -6.630  0.00  0.00    +0.000 C 
ATOM      8  H   UNL     1      -7.677  -6.824  -5.762  0.00  0.00    +0.000 HD
ATOM      9  H   UNL     1      -6.071  -7.343  -6.265  0.00  0.00    +0.000 HD
BRANCH   7  10
ATOM     10  C   UNL     1      -7.680  -8.424  -7.210  0.00  0.00    +0.000 C 
ATOM     11  H   UNL     1      -8.124  -8.216  -8.190  0.00  0.00    +0.000 HD
ATOM     12  H   UNL     1      -8.485  -8.781  -6.557  0.00  0.00    +0.000 HD
BRANCH  10  13
ATOM     13  C   UNL     1      -6.610  -9.512  -7.352  0.00  0.00    +0.000 C 
ATOM     14  H   UNL     1      -5.962  -9.273  -8.205  0.00  0.00    +0.000 HD
ATOM     15  H   UNL     1      -7.089 -10.471  -7.584  0.00  0.00    +0.000 HD
BRANCH  13  16
ATOM     16  C   UNL     1      -5.757  -9.660  -6.094  0.00  0.00    +0.000 C 
ATOM     17  H   UNL     1      -4.740  -9.961  -6.370  0.00  0.00    +0.000 HD
ATOM     18  H   UNL     1      -5.712  -8.702  -5.566  0.00  0.00    +0.000 HD
BRANCH  16  20
ATOM     19  O   UNL     1      -6.162 -11.903  -5.295  0.00  0.00    +0.000 OA
ATOM     20  C   UNL     1      -6.304 -10.696  -5.145  0.00  0.00    +0.000 C 
BRANCH  20  21
ATOM     21  O   UNL     1      -6.968 -10.147  -4.099  0.00  0.00    +0.000 OA
ATOM     22  H   UNL     1      -7.733  -9.606  -4.393  0.00  0.00    +0.000 HD
ENDBRANCH  20  21
ENDBRANCH  16  20
ENDBRANCH  13  16
ENDBRANCH  10  13
ENDBRANCH   7  10
ENDBRANCH   4   7
ENDBRANCH   1   4
BRANCH   1  23
ATOM     23  C   UNL     1      -6.158  -6.473  -9.962  0.00  0.00    +0.000 C 
ATOM     24  H   UNL     1      -6.747  -5.688 -10.452  0.00  0.00    +0.000 HD
ATOM     25  H   UNL     1      -6.788  -7.370  -9.919  0.00  0.00    +0.000 HD
BRANCH  23  26
ATOM     26  C   UNL     1      -4.907  -6.763 -10.791  0.00  0.00    +0.000 C 
ATOM     27  H   UNL     1      -5.049  -7.693 -11.356  0.00  0.00    +0.000 HD
ATOM     28  H   UNL     1      -4.770  -5.963 -11.528  0.00  0.00    +0.000 HD
BRANCH  26  29
ATOM     29  C   UNL     1      -3.633  -6.887  -9.950  0.00  0.00    +0.000 C 
ATOM     30  H   UNL     1      -2.885  -6.183 -10.337  0.00  0.00    +0.000 HD
ATOM     31  H   UNL     1      -3.859  -6.564  -8.926  0.00  0.00    +0.000 HD
BRANCH  29  32
ATOM     32  C   UNL     1      -3.003  -8.282  -9.897  0.00  0.00    +0.000 C 
ATOM     33  H   UNL     1      -3.456  -8.910 -10.673  0.00  0.00    +0.000 HD
ATOM     34  H   UNL     1      -1.935  -8.205 -10.136  0.00  0.00    +0.000 HD
BRANCH  32  35
ATOM     35  C   UNL     1      -3.162  -8.971  -8.552  0.00  0.00    +0.000 C 
ATOM     36  H   UNL     1      -3.844  -8.411  -7.905  0.00  0.00    +0.000 HD
ATOM     37  H   UNL     1      -3.560  -9.983  -8.676  0.00  0.00    +0.000 HD
ATOM     38  H   UNL     1      -2.195  -9.046  -8.045  0.00  0.00    +0.000 HD
ENDBRANCH  32  35
ENDBRANCH  29  32
ENDBRANCH  26  29
ENDBRANCH  23  26
ENDBRANCH   1  23
TORSDOF 12
ENDMDL
MODEL 10
REMARK VINA RESULT:    -3.966      2.554      4.588
REMARK INTER + INTRA:          -7.623
REMARK INTER:                  -6.477
REMARK INTRA:                  -1.146
REMARK UNBOUND:                -1.106
REMARK  Name = 3893
REMARK  12 active torsions:
REMARK  status: ('A' for Active; 'I' for Inactive)
REMARK    1  A    between atoms: O_1  and  C_14
REMARK    2  A    between atoms: C_3  and  C_4
REMARK    3  A    between atoms: C_3  and  C_5
REMARK    4  A    between atoms: C_4  and  C_6
REMARK    5  A    between atoms: C_5  and  C_7
REMARK    6  A    between atoms: C_6  and  C_8
REMARK    7  A    between atoms: C_7  and  C_9
REMARK    8  A    between atoms: C_8  and  C_10
REMARK    9  A    between atoms: C_9  and  C_11
REMARK   10  A    between atoms: C_10  and  C_12
REMARK   11  A    between atoms: C_11  and  C_13
REMARK   12  A    between atoms: C_12  and  C_14
REMARK                            x       y       z     vdW  Elec       q    Type
REMARK                         _______ _______ _______ _____ _____    ______ ____
ROOT
ATOM      1  C   UNL     1       1.959 -14.849   2.769  0.00  0.00    +0.000 C 
ATOM      2  H   UNL     1       1.593 -14.505   1.794  0.00  0.00    +0.000 HD
ATOM      3  H   UNL     1       1.079 -15.051   3.393  0.00  0.00    +0.000 HD
ENDROOT
BRANCH   1   4
ATOM      4  C   UNL     1       2.800 -13.746   3.418  0.00  0.00    +0.000 C 
ATOM      5  H   UNL     1       2.752 -13.848   4.510  0.00  0.00    +0.000 HD
ATOM      6  H   UNL     1       3.850 -13.880   3.134  0.00  0.00    +0.000 HD
BRANCH   4   7
ATOM      7  C   UNL     1       2.353 -12.333   3.032  0.00  0.00    +0.000 C 
ATOM      8  H   UNL     1       2.395 -11.689   3.919  0.00  0.00    +0.000 HD
ATOM      9  H   UNL     1       1.305 -12.365   2.713  0.00  0.00    +0.000 HD
BRANCH   7  10
ATOM     10  C   UNL     1       3.199 -11.713   1.917  0.00  0.00    +0.000 C 
ATOM     11  H   UNL     1       3.362 -10.648   2.125  0.00  0.00    +0.000 HD
ATOM     12  H   UNL     1       2.657 -11.779   0.966  0.00  0.00    +0.000 HD
BRANCH  10  13
ATOM     13  C   UNL     1       4.551 -12.423   1.790  0.00  0.00    +0.000 C 
ATOM     14  H   UNL     1       4.600 -13.240   2.523  0.00  0.00    +0.000 HD
ATOM     15  H   UNL     1       5.359 -11.726   2.046  0.00  0.00    +0.000 HD
BRANCH  13  16
ATOM     16  C   UNL     1       4.787 -12.984   0.390  0.00  0.00    +0.000 C 
ATOM     17  H   UNL     1       5.553 -13.768   0.429  0.00  0.00    +0.000 HD
ATOM     18  H   UNL     1       3.857 -13.416   0.005  0.00  0.00    +0.000 HD
BRANCH  16  20
ATOM     19  O   UNL     1       6.398 -11.493  -0.619  0.00  0.00    +0.000 OA
ATOM     20  C   UNL     1       5.254 -11.931  -0.582  0.00  0.00    +0.000 C 
BRANCH  20  21
ATOM     21  O   UNL     1       4.271 -11.521  -1.421  0.00  0.00    +0.000 OA
ATOM     22  H   UNL     1       3.390 -11.855  -1.144  0.00  0.00    +0.000 HD
ENDBRANCH  20  21
ENDBRANCH  16  20
ENDBRANCH  13  16
ENDBRANCH  10  13
ENDBRANCH   7  10
ENDBRANCH   4   7
ENDBRANCH   1   4
BRANCH   1  23
ATOM     23  C   UNL     1       2.771 -16.134   2.592  0.00  0.00    +0.000 C 
ATOM     24  H   UNL     1       3.015 -16.272   1.531  0.00  0.00    +0.000 HD
ATOM     25  H   UNL     1       2.170 -16.998   2.900  0.00  0.00    +0.000 HD
BRANCH  23  26
ATOM     26  C   UNL     1       4.063 -16.090   3.409  0.00  0.00    +0.000 C 
ATOM     27  H   UNL     1       4.369 -15.047   3.555  0.00  0.00    +0.000 HD
ATOM     28  H   UNL     1       3.873 -16.507   4.405  0.00  0.00    +0.000 HD
BRANCH  26  29
ATOM     29  C   UNL     1       5.220 -16.857   2.761  0.00  0.00    +0.000 C 
ATOM     30  H   UNL     1       5.985 -17.050   3.524  0.00  0.00    +0.000 HD
ATOM     31  H   UNL     1       4.850 -17.839   2.440  0.00  0.00    +0.000 HD
BRANCH  29  32
ATOM     32  C   UNL     1       5.889 -16.170   1.568  0.00  0.00    +0.000 C 
ATOM     33  H   UNL     1       6.008 -16.895   0.755  0.00  0.00    +0.000 HD
ATOM     34  H   UNL     1       5.231 -15.377   1.192  0.00  0.00    +0.000 HD
BRANCH  32  35
ATOM     35  C   UNL     1       7.248 -15.572   1.895  0.00  0.00    +0.000 C 
ATOM     36  H   UNL     1       7.407 -15.531   2.976  0.00  0.00    +0.000 HD
ATOM     37  H   UNL     1       8.054 -16.167   1.451  0.00  0.00    +0.000 HD
ATOM     38  H   UNL     1       7.321 -14.553   1.500  0.00  0.00    +0.000 HD
ENDBRANCH  32  35
ENDBRANCH  29  32
ENDBRANCH  26  29
ENDBRANCH  23  26
ENDBRANCH   1  23
TORSDOF 12
ENDMDL
