MODEL 1
REMARK VINA RESULT:    -4.813      0.000      0.000
REMARK INTER + INTRA:          -8.563
REMARK INTER:                  -7.670
REMARK INTRA:                  -0.892
REMARK UNBOUND:                -0.795
REMARK  Name = 8194
REMARK  11 active torsions:
REMARK  status: ('A' for Active; 'I' for Inactive)
REMARK    1  A    between atoms: C_2  and  C_3
REMARK    2  A    between atoms: C_2  and  C_4
REMARK    3  A    between atoms: C_3  and  C_5
REMARK    4  A    between atoms: C_4  and  C_6
REMARK    5  A    between atoms: C_5  and  C_7
REMARK    6  A    between atoms: C_6  and  C_8
REMARK    7  A    between atoms: C_7  and  C_9
REMARK    8  A    between atoms: C_8  and  C_10
REMARK    9  A    between atoms: C_9  and  C_11
REMARK   10  A    between atoms: C_10  and  C_12
REMARK   11  A    between atoms: C_11  and  C_13
REMARK                            x       y       z     vdW  Elec       q    Type
REMARK                         _______ _______ _______ _____ _____    ______ ____
ROOT
ATOM      1  C   UNL     1       5.056 -13.331  -0.614  0.00  0.00    +0.000 C 
ATOM      2  H   UNL     1       5.162 -13.369   0.477  0.00  0.00    +0.000 HD
ATOM      3  H   UNL     1       4.380 -14.151  -0.888  0.00  0.00    +0.000 HD
ENDROOT
BRANCH   1   4
ATOM      4  C   UNL     1       6.423 -13.596  -1.252  0.00  0.00    +0.000 C 
ATOM      5  H   UNL     1       6.725 -12.711  -1.826  0.00  0.00    +0.000 HD
ATOM      6  H   UNL     1       6.325 -14.420  -1.970  0.00  0.00    +0.000 HD
BRANCH   4   7
ATOM      7  C   UNL     1       7.513 -13.941  -0.235  0.00  0.00    +0.000 C 
ATOM      8  H   UNL     1       7.197 -14.802   0.365  0.00  0.00    +0.000 HD
ATOM      9  H   UNL     1       8.427 -14.233  -0.766  0.00  0.00    +0.000 HD
BRANCH   7  10
ATOM     10  C   UNL     1       7.809 -12.752   0.683  0.00  0.00    +0.000 C 
ATOM     11  H   UNL     1       6.869 -12.289   1.006  0.00  0.00    +0.000 HD
ATOM     12  H   UNL     1       8.323 -13.103   1.585  0.00  0.00    +0.000 HD
BRANCH  10  13
ATOM     13  C   UNL     1       8.674 -11.706  -0.026  0.00  0.00    +0.000 C 
ATOM     14  H   UNL     1       9.040 -12.119  -0.975  0.00  0.00    +0.000 HD
ATOM     15  H   UNL     1       9.562 -11.500   0.586  0.00  0.00    +0.000 HD
BRANCH  13  16
ATOM     16  C   UNL     1       7.928 -10.402  -0.292  0.00  0.00    +0.000 C 
ATOM     17  H   UNL     1       7.317 -10.485  -1.197  0.00  0.00    +0.000 HD
ATOM     18  H   UNL     1       7.269 -10.161   0.548  0.00  0.00    +0.000 HD
BRANCH  16  20
ATOM     19  O   UNL     1       8.506  -8.075  -0.536  0.00  0.00    +0.000 OA
ATOM     20  C   UNL     1       8.875  -9.244  -0.475  0.00  0.00    +0.000 C 
ATOM     21  H   UNL     1       9.944  -9.509  -0.542  0.00  0.00    +0.000 HD
ENDBRANCH  16  20
ENDBRANCH  13  16
ENDBRANCH  10  13
ENDBRANCH   7  10
ENDBRANCH   4   7
ENDBRANCH   1   4
BRANCH   1  22
ATOM     22  C   UNL     1       4.388 -12.006  -0.998  0.00  0.00    +0.000 C 
ATOM     23  H   UNL     1       3.719 -12.175  -1.850  0.00  0.00    +0.000 HD
ATOM     24  H   UNL     1       5.159 -11.302  -1.336  0.00  0.00    +0.000 HD
BRANCH  22  25
ATOM     25  C   UNL     1       3.592 -11.375   0.147  0.00  0.00    +0.000 C 
ATOM     26  H   UNL     1       3.765 -10.292   0.154  0.00  0.00    +0.000 HD
ATOM     27  H   UNL     1       2.520 -11.525  -0.035  0.00  0.00    +0.000 HD
BRANCH  25  28
ATOM     28  C   UNL     1       3.951 -11.948   1.522  0.00  0.00    +0.000 C 
ATOM     29  H   UNL     1       4.772 -11.361   1.951  0.00  0.00    +0.000 HD
ATOM     30  H   UNL     1       4.327 -12.971   1.395  0.00  0.00    +0.000 HD
BRANCH  28  31
ATOM     31  C   UNL     1       2.775 -11.962   2.499  0.00  0.00    +0.000 C 
ATOM     32  H   UNL     1       1.852 -11.695   1.973  0.00  0.00    +0.000 HD
ATOM     33  H   UNL     1       2.934 -11.209   3.281  0.00  0.00    +0.000 HD
BRANCH  31  34
ATOM     34  C   UNL     1       2.607 -13.329   3.145  0.00  0.00    +0.000 C 
ATOM     35  H   UNL     1       1.552 -13.541   3.345  0.00  0.00    +0.000 HD
ATOM     36  H   UNL     1       3.155 -13.387   4.090  0.00  0.00    +0.000 HD
ATOM     37  H   UNL     1       2.990 -14.111   2.481  0.00  0.00    +0.000 HD
ENDBRANCH  31  34
ENDBRANCH  28  31
ENDBRANCH  25  28
ENDBRANCH  22  25
ENDBRANCH   1  22
TORSDOF 11
ENDMDL
MODEL 2
REMARK VINA RESULT:    -4.807     14.614     17.187
REMARK INTER + INTRA:          -8.553
REMARK INTER:                  -7.422
REMARK INTRA:                  -1.131
REMARK UNBOUND:                -0.795
REMARK  Name = 8194
REMARK  11 active torsions:
REMARK  status: ('A' for Active; 'I' for Inactive)
REMARK    1  A    between atoms: C_2  and  C_3
REMARK    2  A    between atoms: C_2  and  C_4
REMARK    3  A    between atoms: C_3  and  C_5
REMARK    4  A    between atoms: C_4  and  C_6
REMARK    5  A    between atoms: C_5  and  C_7
REMARK    6  A    between atoms: C_6  and  C_8
REMARK    7  A    between atoms: C_7  and  C_9
REMARK    8  A    between atoms: C_8  and  C_10
REMARK    9  A    between atoms: C_9  and  C_11
REMARK   10  A    between atoms: C_10  and  C_12
REMARK   11  A    between atoms: C_11  and  C_13
REMARK                            x       y       z     vdW  Elec       q    Type
REMARK                         _______ _______ _______ _____ _____    ______ ____
ROOT
ATOM      1  C   UNL     1      -0.005  -7.661  16.864  0.00  0.00    +0.000 C 
ATOM      2  H   UNL     1      -0.870  -8.288  17.110  0.00  0.00    +0.000 HD
ATOM      3  H   UNL     1       0.309  -7.185  17.802  0.00  0.00    +0.000 HD
ENDROOT
BRANCH   1   4
ATOM      4  C   UNL     1      -0.451  -6.565  15.891  0.00  0.00    +0.000 C 
ATOM      5  H   UNL     1      -1.547  -6.549  15.854  0.00  0.00    +0.000 HD
ATOM      6  H   UNL     1      -0.104  -6.824  14.883  0.00  0.00    +0.000 HD
BRANCH   4   7
ATOM      7  C   UNL     1       0.068  -5.174  16.260  0.00  0.00    +0.000 C 
ATOM      8  H   UNL     1      -0.771  -4.470  16.308  0.00  0.00    +0.000 HD
ATOM      9  H   UNL     1       0.521  -5.207  17.258  0.00  0.00    +0.000 HD
BRANCH   7  10
ATOM     10  C   UNL     1       1.100  -4.680  15.243  0.00  0.00    +0.000 C 
ATOM     11  H   UNL     1       1.228  -5.428  14.451  0.00  0.00    +0.000 HD
ATOM     12  H   UNL     1       0.737  -3.762  14.767  0.00  0.00    +0.000 HD
BRANCH  10  13
ATOM     13  C   UNL     1       2.452  -4.411  15.911  0.00  0.00    +0.000 C 
ATOM     14  H   UNL     1       3.236  -4.969  15.382  0.00  0.00    +0.000 HD
ATOM     15  H   UNL     1       2.430  -4.803  16.936  0.00  0.00    +0.000 HD
BRANCH  13  16
ATOM     16  C   UNL     1       2.813  -2.929  15.941  0.00  0.00    +0.000 C 
ATOM     17  H   UNL     1       1.954  -2.329  16.260  0.00  0.00    +0.000 HD
ATOM     18  H   UNL     1       3.637  -2.751  16.639  0.00  0.00    +0.000 HD
BRANCH  16  20
ATOM     19  O   UNL     1       4.424  -2.347  14.246  0.00  0.00    +0.000 OA
ATOM     20  C   UNL     1       3.248  -2.434  14.586  0.00  0.00    +0.000 C 
ATOM     21  H   UNL     1       2.433  -2.156  13.896  0.00  0.00    +0.000 HD
ENDBRANCH  16  20
ENDBRANCH  13  16
ENDBRANCH  10  13
ENDBRANCH   7  10
ENDBRANCH   4   7
ENDBRANCH   1   4
BRANCH   1  22
ATOM     22  C   UNL     1       1.134  -8.563  16.376  0.00  0.00    +0.000 C 
ATOM     23  H   UNL     1       1.038  -8.707  15.293  0.00  0.00    +0.000 HD
ATOM     24  H   UNL     1       1.028  -9.553  16.837  0.00  0.00    +0.000 HD
BRANCH  22  25
ATOM     25  C   UNL     1       2.525  -8.005  16.687  0.00  0.00    +0.000 C 
ATOM     26  H   UNL     1       2.422  -7.004  17.127  0.00  0.00    +0.000 HD
ATOM     27  H   UNL     1       3.004  -8.637  17.444  0.00  0.00    +0.000 HD
BRANCH  25  28
ATOM     28  C   UNL     1       3.433  -7.920  15.456  0.00  0.00    +0.000 C 
ATOM     29  H   UNL     1       4.053  -8.822  15.406  0.00  0.00    +0.000 HD
ATOM     30  H   UNL     1       4.119  -7.071  15.577  0.00  0.00    +0.000 HD
BRANCH  28  31
ATOM     31  C   UNL     1       2.663  -7.761  14.145  0.00  0.00    +0.000 C 
ATOM     32  H   UNL     1       2.585  -6.699  13.886  0.00  0.00    +0.000 HD
ATOM     33  H   UNL     1       1.642  -8.144  14.266  0.00  0.00    +0.000 HD
BRANCH  31  34
ATOM     34  C   UNL     1       3.348  -8.505  13.007  0.00  0.00    +0.000 C 
ATOM     35  H   UNL     1       4.217  -9.062  13.370  0.00  0.00    +0.000 HD
ATOM     36  H   UNL     1       3.683  -7.811  12.231  0.00  0.00    +0.000 HD
ATOM     37  H   UNL     1       2.654  -9.218  12.550  0.00  0.00    +0.000 HD
ENDBRANCH  31  34
ENDBRANCH  28  31
ENDBRANCH  25  28
ENDBRANCH  22  25
ENDBRANCH   1  22
TORSDOF 11
ENDMDL
MODEL 3
REMARK VINA RESULT:    -4.478      2.649      5.892
REMARK INTER + INTRA:          -8.022
REMARK INTER:                  -7.201
REMARK INTRA:                  -0.821
REMARK UNBOUND:                -0.795
REMARK  Name = 8194
REMARK  11 active torsions:
REMARK  status: ('A' for Active; 'I' for Inactive)
REMARK    1  A    between atoms: C_2  and  C_3
REMARK    2  A    between atoms: C_2  and  C_4
REMARK    3  A    between atoms: C_3  and  C_5
REMARK    4  A    between atoms: C_4  and  C_6
REMARK    5  A    between atoms: C_5  and  C_7
REMARK    6  A    between atoms: C_6  and  C_8
REMARK    7  A    between atoms: C_7  and  C_9
REMARK    8  A    between atoms: C_8  and  C_10
REMARK    9  A    between atoms: C_9  and  C_11
REMARK   10  A    between atoms: C_10  and  C_12
REMARK   11  A    between atoms: C_11  and  C_13
REMARK                            x       y       z     vdW  Elec       q    Type
REMARK                         _______ _______ _______ _____ _____    ______ ____
ROOT
ATOM      1  C   UNL     1       3.713 -11.532  -0.193  0.00  0.00    +0.000 C 
ATOM      2  H   UNL     1       3.860 -10.448  -0.273  0.00  0.00    +0.000 HD
ATOM      3  H   UNL     1       2.672 -11.725  -0.481  0.00  0.00    +0.000 HD
ENDROOT
BRANCH   1   4
ATOM      4  C   UNL     1       3.895 -11.948   1.269  0.00  0.00    +0.000 C 
ATOM      5  H   UNL     1       4.851 -11.550   1.635  0.00  0.00    +0.000 HD
ATOM      6  H   UNL     1       3.968 -13.041   1.321  0.00  0.00    +0.000 HD
BRANCH   4   7
ATOM      7  C   UNL     1       2.763 -11.474   2.184  0.00  0.00    +0.000 C 
ATOM      8  H   UNL     1       3.180 -10.884   3.008  0.00  0.00    +0.000 HD
ATOM      9  H   UNL     1       2.091 -10.816   1.620  0.00  0.00    +0.000 HD
BRANCH   7  10
ATOM     10  C   UNL     1       1.973 -12.660   2.744  0.00  0.00    +0.000 C 
ATOM     11  H   UNL     1       1.199 -12.299   3.432  0.00  0.00    +0.000 HD
ATOM     12  H   UNL     1       1.463 -13.181   1.926  0.00  0.00    +0.000 HD
BRANCH  10  13
ATOM     13  C   UNL     1       2.891 -13.639   3.482  0.00  0.00    +0.000 C 
ATOM     14  H   UNL     1       2.721 -13.552   4.563  0.00  0.00    +0.000 HD
ATOM     15  H   UNL     1       3.936 -13.351   3.308  0.00  0.00    +0.000 HD
BRANCH  13  16
ATOM     16  C   UNL     1       2.684 -15.086   3.049  0.00  0.00    +0.000 C 
ATOM     17  H   UNL     1       2.652 -15.750   3.919  0.00  0.00    +0.000 HD
ATOM     18  H   UNL     1       1.741 -15.190   2.501  0.00  0.00    +0.000 HD
BRANCH  16  20
ATOM     19  O   UNL     1       4.974 -15.296   2.328  0.00  0.00    +0.000 OA
ATOM     20  C   UNL     1       3.790 -15.562   2.142  0.00  0.00    +0.000 C 
ATOM     21  H   UNL     1       3.473 -16.185   1.289  0.00  0.00    +0.000 HD
ENDBRANCH  16  20
ENDBRANCH  13  16
ENDBRANCH  10  13
ENDBRANCH   7  10
ENDBRANCH   4   7
ENDBRANCH   1   4
BRANCH   1  22
ATOM     22  C   UNL     1       4.631 -12.229  -1.204  0.00  0.00    +0.000 C 
ATOM     23  H   UNL     1       5.420 -11.532  -1.511  0.00  0.00    +0.000 HD
ATOM     24  H   UNL     1       4.053 -12.469  -2.105  0.00  0.00    +0.000 HD
BRANCH  22  25
ATOM     25  C   UNL     1       5.273 -13.506  -0.657  0.00  0.00    +0.000 C 
ATOM     26  H   UNL     1       5.104 -13.561   0.426  0.00  0.00    +0.000 HD
ATOM     27  H   UNL     1       4.776 -14.376  -1.101  0.00  0.00    +0.000 HD
BRANCH  25  28
ATOM     28  C   UNL     1       6.778 -13.593  -0.933  0.00  0.00    +0.000 C 
ATOM     29  H   UNL     1       6.934 -13.938  -1.962  0.00  0.00    +0.000 HD
ATOM     30  H   UNL     1       7.217 -14.354  -0.275  0.00  0.00    +0.000 HD
BRANCH  28  31
ATOM     31  C   UNL     1       7.510 -12.267  -0.728  0.00  0.00    +0.000 C 
ATOM     32  H   UNL     1       6.795 -11.490  -0.433  0.00  0.00    +0.000 HD
ATOM     33  H   UNL     1       7.969 -11.947  -1.671  0.00  0.00    +0.000 HD
BRANCH  31  34
ATOM     34  C   UNL     1       8.587 -12.388   0.340  0.00  0.00    +0.000 C 
ATOM     35  H   UNL     1       8.200 -12.096   1.321  0.00  0.00    +0.000 HD
ATOM     36  H   UNL     1       9.445 -11.751   0.105  0.00  0.00    +0.000 HD
ATOM     37  H   UNL     1       8.939 -13.422   0.407  0.00  0.00    +0.000 HD
ENDBRANCH  31  34
ENDBRANCH  28  31
ENDBRANCH  25  28
ENDBRANCH  22  25
ENDBRANCH   1  22
TORSDOF 11
ENDMDL
MODEL 4
REMARK VINA RESULT:    -4.468     15.272     18.063
REMARK INTER + INTRA:          -8.006
REMARK INTER:                  -6.676
REMARK INTRA:                  -1.330
REMARK UNBOUND:                -0.795
REMARK  Name = 8194
REMARK  11 active torsions:
REMARK  status: ('A' for Active; 'I' for Inactive)
REMARK    1  A    between atoms: C_2  and  C_3
REMARK    2  A    between atoms: C_2  and  C_4
REMARK    3  A    between atoms: C_3  and  C_5
REMARK    4  A    between atoms: C_4  and  C_6
REMARK    5  A    between atoms: C_5  and  C_7
REMARK    6  A    between atoms: C_6  and  C_8
REMARK    7  A    between atoms: C_7  and  C_9
REMARK    8  A    between atoms: C_8  and  C_10
REMARK    9  A    between atoms: C_9  and  C_11
REMARK   10  A    between atoms: C_10  and  C_12
REMARK   11  A    between atoms: C_11  and  C_13
REMARK                            x       y       z     vdW  Elec       q    Type
REMARK                         _______ _______ _______ _____ _____    ______ ____
ROOT
ATOM      1  C   UNL     1       2.134  -3.888  15.512  0.00  0.00    +0.000 C 
ATOM      2  H   UNL     1       1.809  -2.995  16.059  0.00  0.00    +0.000 HD
ATOM      3  H   UNL     1       2.639  -3.530  14.606  0.00  0.00    +0.000 HD
ENDROOT
BRANCH   1   4
ATOM      4  C   UNL     1       0.896  -4.687  15.094  0.00  0.00    +0.000 C 
ATOM      5  H   UNL     1       1.213  -5.532  14.470  0.00  0.00    +0.000 HD
ATOM      6  H   UNL     1       0.260  -4.052  14.465  0.00  0.00    +0.000 HD
BRANCH   4   7
ATOM      7  C   UNL     1       0.076  -5.206  16.277  0.00  0.00    +0.000 C 
ATOM      8  H   UNL     1       0.667  -5.124  17.197  0.00  0.00    +0.000 HD
ATOM      9  H   UNL     1      -0.814  -4.579  16.406  0.00  0.00    +0.000 HD
BRANCH   7  10
ATOM     10  C   UNL     1      -0.346  -6.662  16.061  0.00  0.00    +0.000 C 
ATOM     11  H   UNL     1      -1.399  -6.703  15.760  0.00  0.00    +0.000 HD
ATOM     12  H   UNL     1       0.242  -7.098  15.246  0.00  0.00    +0.000 HD
BRANCH  10  13
ATOM     13  C   UNL     1      -0.150  -7.490  17.335  0.00  0.00    +0.000 C 
ATOM     14  H   UNL     1      -1.115  -7.609  17.843  0.00  0.00    +0.000 HD
ATOM     15  H   UNL     1       0.499  -6.937  18.026  0.00  0.00    +0.000 HD
BRANCH  13  16
ATOM     16  C   UNL     1       0.454  -8.864  17.060  0.00  0.00    +0.000 C 
ATOM     17  H   UNL     1       0.332  -9.136  16.007  0.00  0.00    +0.000 HD
ATOM     18  H   UNL     1       1.523  -8.865  17.295  0.00  0.00    +0.000 HD
BRANCH  16  20
ATOM     19  O   UNL     1      -0.992 -10.753  17.444  0.00  0.00    +0.000 OA
ATOM     20  C   UNL     1      -0.196  -9.936  17.897  0.00  0.00    +0.000 C 
ATOM     21  H   UNL     1       0.097  -9.954  18.960  0.00  0.00    +0.000 HD
ENDBRANCH  16  20
ENDBRANCH  13  16
ENDBRANCH  10  13
ENDBRANCH   7  10
ENDBRANCH   4   7
ENDBRANCH   1   4
BRANCH   1  22
ATOM     22  C   UNL     1       3.156  -4.644  16.369  0.00  0.00    +0.000 C 
ATOM     23  H   UNL     1       2.638  -5.121  17.209  0.00  0.00    +0.000 HD
ATOM     24  H   UNL     1       3.863  -3.924  16.800  0.00  0.00    +0.000 HD
BRANCH  22  25
ATOM     25  C   UNL     1       3.930  -5.709  15.588  0.00  0.00    +0.000 C 
ATOM     26  H   UNL     1       3.817  -5.522  14.512  0.00  0.00    +0.000 HD
ATOM     27  H   UNL     1       4.999  -5.615  15.816  0.00  0.00    +0.000 HD
BRANCH  25  28
ATOM     28  C   UNL     1       3.475  -7.139  15.898  0.00  0.00    +0.000 C 
ATOM     29  H   UNL     1       2.465  -7.108  16.325  0.00  0.00    +0.000 HD
ATOM     30  H   UNL     1       4.131  -7.562  16.669  0.00  0.00    +0.000 HD
BRANCH  28  31
ATOM     31  C   UNL     1       3.479  -8.055  14.674  0.00  0.00    +0.000 C 
ATOM     32  H   UNL     1       3.294  -9.090  14.984  0.00  0.00    +0.000 HD
ATOM     33  H   UNL     1       4.466  -8.030  14.196  0.00  0.00    +0.000 HD
BRANCH  31  34
ATOM     34  C   UNL     1       2.420  -7.637  13.665  0.00  0.00    +0.000 C 
ATOM     35  H   UNL     1       1.440  -7.541  14.143  0.00  0.00    +0.000 HD
ATOM     36  H   UNL     1       2.339  -8.368  12.856  0.00  0.00    +0.000 HD
ATOM     37  H   UNL     1       2.679  -6.669  13.224  0.00  0.00    +0.000 HD
ENDBRANCH  31  34
ENDBRANCH  28  31
ENDBRANCH  25  28
ENDBRANCH  22  25
ENDBRANCH   1  22
TORSDOF 11
ENDMDL
MODEL 5
REMARK VINA RESULT:    -4.291      2.840      3.515
REMARK INTER + INTRA:          -7.720
REMARK INTER:                  -7.388
REMARK INTRA:                  -0.331
REMARK UNBOUND:                -0.795
REMARK  Name = 8194
REMARK  11 active torsions:
REMARK  status: ('A' for Active; 'I' for Inactive)
REMARK    1  A    between atoms: C_2  and  C_3
REMARK    2  A    between atoms: C_2  and  C_4
REMARK    3  A    between atoms: C_3  and  C_5
REMARK    4  A    between atoms: C_4  and  C_6
REMARK    5  A    between atoms: C_5  and  C_7
REMARK    6  A    between atoms: C_6  and  C_8
REMARK    7  A    between atoms: C_7  and  C_9
REMARK    8  A    between atoms: C_8  and  C_10
REMARK    9  A    between atoms: C_9  and  C_11
REMARK   10  A    between atoms: C_10  and  C_12
REMARK   11  A    between atoms: C_11  and  C_13
REMARK                            x       y       z     vdW  Elec       q    Type
REMARK                         _______ _______ _______ _____ _____    ______ ____
ROOT
ATOM      1  C   UNL     1       6.953 -11.610  -0.187  0.00  0.00    +0.000 C 
ATOM      2  H   UNL     1       6.813 -10.649  -0.698  0.00  0.00    +0.000 HD
ATOM      3  H   UNL     1       6.810 -11.414   0.884  0.00  0.00    +0.000 HD
ENDROOT
BRANCH   1   4
ATOM      4  C   UNL     1       8.394 -12.080  -0.405  0.00  0.00    +0.000 C 
ATOM      5  H   UNL     1       8.457 -12.595  -1.372  0.00  0.00    +0.000 HD
ATOM      6  H   UNL     1       8.646 -12.820   0.364  0.00  0.00    +0.000 HD
BRANCH   4   7
ATOM      7  C   UNL     1       9.418 -10.943  -0.365  0.00  0.00    +0.000 C 
ATOM      8  H   UNL     1       8.921 -10.011  -0.074  0.00  0.00    +0.000 HD
ATOM      9  H   UNL     1      10.174 -11.161   0.399  0.00  0.00    +0.000 HD
BRANCH   7  10
ATOM     10  C   UNL     1      10.097 -10.763  -1.725  0.00  0.00    +0.000 C 
ATOM     11  H   UNL     1      10.664 -11.666  -1.980  0.00  0.00    +0.000 HD
ATOM     12  H   UNL     1       9.336 -10.628  -2.502  0.00  0.00    +0.000 HD
BRANCH  10  13
ATOM     13  C   UNL     1      11.041  -9.556  -1.718  0.00  0.00    +0.000 C 
ATOM     14  H   UNL     1      11.792  -9.687  -0.928  0.00  0.00    +0.000 HD
ATOM     15  H   UNL     1      10.470  -8.656  -1.458  0.00  0.00    +0.000 HD
BRANCH  13  16
ATOM     16  C   UNL     1      11.742  -9.345  -3.057  0.00  0.00    +0.000 C 
ATOM     17  H   UNL     1      11.164  -9.795  -3.871  0.00  0.00    +0.000 HD
ATOM     18  H   UNL     1      11.855  -8.276  -3.264  0.00  0.00    +0.000 HD
BRANCH  16  20
ATOM     19  O   UNL     1      14.052  -9.508  -3.726  0.00  0.00    +0.000 OA
ATOM     20  C   UNL     1      13.118  -9.959  -3.069  0.00  0.00    +0.000 C 
ATOM     21  H   UNL     1      13.247 -10.851  -2.433  0.00  0.00    +0.000 HD
ENDBRANCH  16  20
ENDBRANCH  13  16
ENDBRANCH  10  13
ENDBRANCH   7  10
ENDBRANCH   4   7
ENDBRANCH   1   4
BRANCH   1  22
ATOM     22  C   UNL     1       5.859 -12.578  -0.651  0.00  0.00    +0.000 C 
ATOM     23  H   UNL     1       6.316 -13.375  -1.250  0.00  0.00    +0.000 HD
ATOM     24  H   UNL     1       5.167 -12.043  -1.314  0.00  0.00    +0.000 HD
BRANCH  22  25
ATOM     25  C   UNL     1       5.074 -13.204   0.504  0.00  0.00    +0.000 C 
ATOM     26  H   UNL     1       4.028 -13.336   0.200  0.00  0.00    +0.000 HD
ATOM     27  H   UNL     1       5.474 -14.205   0.708  0.00  0.00    +0.000 HD
BRANCH  25  28
ATOM     28  C   UNL     1       5.122 -12.373   1.790  0.00  0.00    +0.000 C 
ATOM     29  H   UNL     1       5.137 -11.308   1.527  0.00  0.00    +0.000 HD
ATOM     30  H   UNL     1       6.062 -12.582   2.315  0.00  0.00    +0.000 HD
BRANCH  28  31
ATOM     31  C   UNL     1       3.948 -12.644   2.731  0.00  0.00    +0.000 C 
ATOM     32  H   UNL     1       4.229 -12.390   3.759  0.00  0.00    +0.000 HD
ATOM     33  H   UNL     1       3.701 -13.713   2.716  0.00  0.00    +0.000 HD
BRANCH  31  34
ATOM     34  C   UNL     1       2.721 -11.838   2.333  0.00  0.00    +0.000 C 
ATOM     35  H   UNL     1       2.702 -11.660   1.253  0.00  0.00    +0.000 HD
ATOM     36  H   UNL     1       2.706 -10.870   2.841  0.00  0.00    +0.000 HD
ATOM     37  H   UNL     1       1.808 -12.378   2.605  0.00  0.00    +0.000 HD
ENDBRANCH  31  34
ENDBRANCH  28  31
ENDBRANCH  25  28
ENDBRANCH  22  25
ENDBRANCH   1  22
TORSDOF 11
ENDMDL
MODEL 6
REMARK VINA RESULT:    -4.291     15.706     17.755
REMARK INTER + INTRA:          -7.719
REMARK INTER:                  -7.179
REMARK INTRA:                  -0.540
REMARK UNBOUND:                -0.795
REMARK  Name = 8194
REMARK  11 active torsions:
REMARK  status: ('A' for Active; 'I' for Inactive)
REMARK    1  A    between atoms: C_2  and  C_3
REMARK    2  A    between atoms: C_2  and  C_4
REMARK    3  A    between atoms: C_3  and  C_5
REMARK    4  A    between atoms: C_4  and  C_6
REMARK    5  A    between atoms: C_5  and  C_7
REMARK    6  A    between atoms: C_6  and  C_8
REMARK    7  A    between atoms: C_7  and  C_9
REMARK    8  A    between atoms: C_8  and  C_10
REMARK    9  A    between atoms: C_9  and  C_11
REMARK   10  A    between atoms: C_10  and  C_12
REMARK   11  A    between atoms: C_11  and  C_13
REMARK                            x       y       z     vdW  Elec       q    Type
REMARK                         _______ _______ _______ _____ _____    ______ ____
ROOT
ATOM      1  C   UNL     1      -0.040  -8.715  17.023  0.00  0.00    +0.000 C 
ATOM      2  H   UNL     1       0.892  -8.887  16.472  0.00  0.00    +0.000 HD
ATOM      3  H   UNL     1      -0.854  -8.810  16.292  0.00  0.00    +0.000 HD
ENDROOT
BRANCH   1   4
ATOM      4  C   UNL     1      -0.038  -7.281  17.561  0.00  0.00    +0.000 C 
ATOM      5  H   UNL     1       1.001  -6.960  17.710  0.00  0.00    +0.000 HD
ATOM      6  H   UNL     1      -0.515  -7.272  18.549  0.00  0.00    +0.000 HD
BRANCH   4   7
ATOM      7  C   UNL     1      -0.753  -6.285  16.646  0.00  0.00    +0.000 C 
ATOM      8  H   UNL     1      -1.172  -6.815  15.783  0.00  0.00    +0.000 HD
ATOM      9  H   UNL     1      -1.592  -5.831  17.187  0.00  0.00    +0.000 HD
BRANCH   7  10
ATOM     10  C   UNL     1       0.203  -5.190  16.166  0.00  0.00    +0.000 C 
ATOM     11  H   UNL     1       0.075  -5.031  15.089  0.00  0.00    +0.000 HD
ATOM     12  H   UNL     1      -0.041  -4.245  16.665  0.00  0.00    +0.000 HD
BRANCH  10  13
ATOM     13  C   UNL     1       1.661  -5.561  16.455  0.00  0.00    +0.000 C 
ATOM     14  H   UNL     1       1.692  -6.509  17.007  0.00  0.00    +0.000 HD
ATOM     15  H   UNL     1       2.100  -4.803  17.115  0.00  0.00    +0.000 HD
BRANCH  13  16
ATOM     16  C   UNL     1       2.503  -5.682  15.188  0.00  0.00    +0.000 C 
ATOM     17  H   UNL     1       2.200  -4.932  14.450  0.00  0.00    +0.000 HD
ATOM     18  H   UNL     1       3.562  -5.532  15.419  0.00  0.00    +0.000 HD
BRANCH  16  20
ATOM     19  O   UNL     1       2.542  -7.248  13.356  0.00  0.00    +0.000 OA
ATOM     20  C   UNL     1       2.363  -7.041  14.553  0.00  0.00    +0.000 C 
ATOM     21  H   UNL     1       2.096  -7.863  15.239  0.00  0.00    +0.000 HD
ENDBRANCH  16  20
ENDBRANCH  13  16
ENDBRANCH  10  13
ENDBRANCH   7  10
ENDBRANCH   4   7
ENDBRANCH   1   4
BRANCH   1  22
ATOM     22  C   UNL     1      -0.202  -9.820  18.073  0.00  0.00    +0.000 C 
ATOM     23  H   UNL     1      -1.065  -9.588  18.708  0.00  0.00    +0.000 HD
ATOM     24  H   UNL     1       0.679  -9.824  18.726  0.00  0.00    +0.000 HD
BRANCH  22  25
ATOM     25  C   UNL     1      -0.388 -11.212  17.463  0.00  0.00    +0.000 C 
ATOM     26  H   UNL     1       0.074 -11.234  16.467  0.00  0.00    +0.000 HD
ATOM     27  H   UNL     1       0.146 -11.947  18.077  0.00  0.00    +0.000 HD
BRANCH  25  28
ATOM     28  C   UNL     1      -1.857 -11.630  17.343  0.00  0.00    +0.000 C 
ATOM     29  H   UNL     1      -2.458 -10.753  17.074  0.00  0.00    +0.000 HD
ATOM     30  H   UNL     1      -2.213 -11.967  18.325  0.00  0.00    +0.000 HD
BRANCH  28  31
ATOM     31  C   UNL     1      -2.090 -12.738  16.316  0.00  0.00    +0.000 C 
ATOM     32  H   UNL     1      -2.370 -12.298  15.352  0.00  0.00    +0.000 HD
ATOM     33  H   UNL     1      -2.924 -13.373  16.639  0.00  0.00    +0.000 HD
BRANCH  31  34
ATOM     34  C   UNL     1      -0.846 -13.595  16.134  0.00  0.00    +0.000 C 
ATOM     35  H   UNL     1      -0.229 -13.587  17.038  0.00  0.00    +0.000 HD
ATOM     36  H   UNL     1      -0.239 -13.233  15.300  0.00  0.00    +0.000 HD
ATOM     37  H   UNL     1      -1.128 -14.632  15.925  0.00  0.00    +0.000 HD
ENDBRANCH  31  34
ENDBRANCH  28  31
ENDBRANCH  25  28
ENDBRANCH  22  25
ENDBRANCH   1  22
TORSDOF 11
ENDMDL
MODEL 7
REMARK VINA RESULT:    -4.279     14.838     17.208
REMARK INTER + INTRA:          -7.700
REMARK INTER:                  -6.905
REMARK INTRA:                  -0.795
REMARK UNBOUND:                -0.795
REMARK  Name = 8194
REMARK  11 active torsions:
REMARK  status: ('A' for Active; 'I' for Inactive)
REMARK    1  A    between atoms: C_2  and  C_3
REMARK    2  A    between atoms: C_2  and  C_4
REMARK    3  A    between atoms: C_3  and  C_5
REMARK    4  A    between atoms: C_4  and  C_6
REMARK    5  A    between atoms: C_5  and  C_7
REMARK    6  A    between atoms: C_6  and  C_8
REMARK    7  A    between atoms: C_7  and  C_9
REMARK    8  A    between atoms: C_8  and  C_10
REMARK    9  A    between atoms: C_9  and  C_11
REMARK   10  A    between atoms: C_10  and  C_12
REMARK   11  A    between atoms: C_11  and  C_13
REMARK                            x       y       z     vdW  Elec       q    Type
REMARK                         _______ _______ _______ _____ _____    ______ ____
ROOT
ATOM      1  C   UNL     1       0.573  -4.859  15.901  0.00  0.00    +0.000 C 
ATOM      2  H   UNL     1       0.604  -4.987  14.812  0.00  0.00    +0.000 HD
ATOM      3  H   UNL     1       0.315  -3.808  16.082  0.00  0.00    +0.000 HD
ENDROOT
BRANCH   1   4
ATOM      4  C   UNL     1       1.972  -5.119  16.468  0.00  0.00    +0.000 C 
ATOM      5  H   UNL     1       2.258  -6.155  16.246  0.00  0.00    +0.000 HD
ATOM      6  H   UNL     1       1.934  -5.029  17.561  0.00  0.00    +0.000 HD
BRANCH   4   7
ATOM      7  C   UNL     1       3.038  -4.167  15.922  0.00  0.00    +0.000 C 
ATOM      8  H   UNL     1       2.568  -3.434  15.255  0.00  0.00    +0.000 HD
ATOM      9  H   UNL     1       3.488  -3.609  16.751  0.00  0.00    +0.000 HD
BRANCH   7  10
ATOM     10  C   UNL     1       4.126  -4.931  15.164  0.00  0.00    +0.000 C 
ATOM     11  H   UNL     1       4.217  -4.536  14.145  0.00  0.00    +0.000 HD
ATOM     12  H   UNL     1       5.092  -4.781  15.658  0.00  0.00    +0.000 HD
BRANCH  10  13
ATOM     13  C   UNL     1       3.809  -6.429  15.101  0.00  0.00    +0.000 C 
ATOM     14  H   UNL     1       2.764  -6.567  14.795  0.00  0.00    +0.000 HD
ATOM     15  H   UNL     1       3.897  -6.857  16.108  0.00  0.00    +0.000 HD
BRANCH  13  16
ATOM     16  C   UNL     1       4.725  -7.188  14.146  0.00  0.00    +0.000 C 
ATOM     17  H   UNL     1       5.364  -6.494  13.590  0.00  0.00    +0.000 HD
ATOM     18  H   UNL     1       5.366  -7.880  14.700  0.00  0.00    +0.000 HD
BRANCH  16  20
ATOM     19  O   UNL     1       4.018  -9.220  13.058  0.00  0.00    +0.000 OA
ATOM     20  C   UNL     1       3.939  -7.998  13.146  0.00  0.00    +0.000 C 
ATOM     21  H   UNL     1       3.267  -7.422  12.489  0.00  0.00    +0.000 HD
ENDBRANCH  16  20
ENDBRANCH  13  16
ENDBRANCH  10  13
ENDBRANCH   7  10
ENDBRANCH   4   7
ENDBRANCH   1   4
BRANCH   1  22
ATOM     22  C   UNL     1      -0.549  -5.737  16.468  0.00  0.00    +0.000 C 
ATOM     23  H   UNL     1      -1.517  -5.285  16.221  0.00  0.00    +0.000 HD
ATOM     24  H   UNL     1      -0.475  -5.748  17.563  0.00  0.00    +0.000 HD
BRANCH  22  25
ATOM     25  C   UNL     1      -0.517  -7.174  15.942  0.00  0.00    +0.000 C 
ATOM     26  H   UNL     1      -1.491  -7.419  15.500  0.00  0.00    +0.000 HD
ATOM     27  H   UNL     1       0.225  -7.246  15.138  0.00  0.00    +0.000 HD
BRANCH  25  28
ATOM     28  C   UNL     1      -0.185  -8.208  17.024  0.00  0.00    +0.000 C 
ATOM     29  H   UNL     1       0.781  -8.672  16.791  0.00  0.00    +0.000 HD
ATOM     30  H   UNL     1      -0.935  -9.008  16.995  0.00  0.00    +0.000 HD
BRANCH  28  31
ATOM     31  C   UNL     1      -0.135  -7.616  18.433  0.00  0.00    +0.000 C 
ATOM     32  H   UNL     1      -0.882  -8.105  19.068  0.00  0.00    +0.000 HD
ATOM     33  H   UNL     1      -0.388  -6.549  18.396  0.00  0.00    +0.000 HD
BRANCH  31  34
ATOM     34  C   UNL     1       1.242  -7.785  19.056  0.00  0.00    +0.000 C 
ATOM     35  H   UNL     1       1.252  -7.423  20.089  0.00  0.00    +0.000 HD
ATOM     36  H   UNL     1       2.000  -7.235  18.491  0.00  0.00    +0.000 HD
ATOM     37  H   UNL     1       1.526  -8.842  19.065  0.00  0.00    +0.000 HD
ENDBRANCH  31  34
ENDBRANCH  28  31
ENDBRANCH  25  28
ENDBRANCH  22  25
ENDBRANCH   1  22
TORSDOF 11
ENDMDL
MODEL 8
REMARK VINA RESULT:    -4.278      8.846     10.217
REMARK INTER + INTRA:          -7.699
REMARK INTER:                  -7.181
REMARK INTRA:                  -0.518
REMARK UNBOUND:                -0.795
REMARK  Name = 8194
REMARK  11 active torsions:
REMARK  status: ('A' for Active; 'I' for Inactive)
REMARK    1  A    between atoms: C_2  and  C_3
REMARK    2  A    between atoms: C_2  and  C_4
REMARK    3  A    between atoms: C_3  and  C_5
REMARK    4  A    between atoms: C_4  and  C_6
REMARK    5  A    between atoms: C_5  and  C_7
REMARK    6  A    between atoms: C_6  and  C_8
REMARK    7  A    between atoms: C_7  and  C_9
REMARK    8  A    between atoms: C_8  and  C_10
REMARK    9  A    between atoms: C_9  and  C_11
REMARK   10  A    between atoms: C_10  and  C_12
REMARK   11  A    between atoms: C_11  and  C_13
REMARK                            x       y       z     vdW  Elec       q    Type
REMARK                         _______ _______ _______ _____ _____    ______ ____
ROOT
ATOM      1  C   UNL     1       4.476  -3.566   0.582  0.00  0.00    +0.000 C 
ATOM      2  H   UNL     1       3.623  -3.179   1.151  0.00  0.00    +0.000 HD
ATOM      3  H   UNL     1       4.427  -4.660   0.656  0.00  0.00    +0.000 HD
ENDROOT
BRANCH   1   4
ATOM      4  C   UNL     1       5.770  -3.093   1.252  0.00  0.00    +0.000 C 
ATOM      5  H   UNL     1       6.031  -3.794   2.055  0.00  0.00    +0.000 HD
ATOM      6  H   UNL     1       5.589  -2.122   1.727  0.00  0.00    +0.000 HD
BRANCH   4   7
ATOM      7  C   UNL     1       6.948  -2.968   0.283  0.00  0.00    +0.000 C 
ATOM      8  H   UNL     1       7.659  -3.783   0.462  0.00  0.00    +0.000 HD
ATOM      9  H   UNL     1       6.586  -3.074  -0.747  0.00  0.00    +0.000 HD
BRANCH   7  10
ATOM     10  C   UNL     1       7.655  -1.620   0.444  0.00  0.00    +0.000 C 
ATOM     11  H   UNL     1       6.918  -0.809   0.423  0.00  0.00    +0.000 HD
ATOM     12  H   UNL     1       8.154  -1.581   1.419  0.00  0.00    +0.000 HD
BRANCH  10  13
ATOM     13  C   UNL     1       8.686  -1.399  -0.669  0.00  0.00    +0.000 C 
ATOM     14  H   UNL     1       9.105  -0.388  -0.579  0.00  0.00    +0.000 HD
ATOM     15  H   UNL     1       8.178  -1.439  -1.641  0.00  0.00    +0.000 HD
BRANCH  13  16
ATOM     16  C   UNL     1       9.815  -2.423  -0.642  0.00  0.00    +0.000 C 
ATOM     17  H   UNL     1      10.783  -1.928  -0.513  0.00  0.00    +0.000 HD
ATOM     18  H   UNL     1       9.674  -3.126   0.185  0.00  0.00    +0.000 HD
BRANCH  16  20
ATOM     19  O   UNL     1      10.260  -2.767  -2.986  0.00  0.00    +0.000 OA
ATOM     20  C   UNL     1       9.870  -3.226  -1.916  0.00  0.00    +0.000 C 
ATOM     21  H   UNL     1       9.543  -4.276  -1.832  0.00  0.00    +0.000 HD
ENDBRANCH  16  20
ENDBRANCH  13  16
ENDBRANCH  10  13
ENDBRANCH   7  10
ENDBRANCH   4   7
ENDBRANCH   1   4
BRANCH   1  22
ATOM     22  C   UNL     1       4.306  -3.173  -0.890  0.00  0.00    +0.000 C 
ATOM     23  H   UNL     1       3.641  -3.894  -1.379  0.00  0.00    +0.000 HD
ATOM     24  H   UNL     1       5.278  -3.247  -1.394  0.00  0.00    +0.000 HD
BRANCH  22  25
ATOM     25  C   UNL     1       3.743  -1.762  -1.078  0.00  0.00    +0.000 C 
ATOM     26  H   UNL     1       4.081  -1.125  -0.251  0.00  0.00    +0.000 HD
ATOM     27  H   UNL     1       4.154  -1.332  -2.000  0.00  0.00    +0.000 HD
BRANCH  25  28
ATOM     28  C   UNL     1       2.212  -1.725  -1.146  0.00  0.00    +0.000 C 
ATOM     29  H   UNL     1       1.811  -2.624  -0.663  0.00  0.00    +0.000 HD
ATOM     30  H   UNL     1       1.901  -1.766  -2.198  0.00  0.00    +0.000 HD
BRANCH  28  31
ATOM     31  C   UNL     1       1.607  -0.485  -0.489  0.00  0.00    +0.000 C 
ATOM     32  H   UNL     1       1.959  -0.402   0.545  0.00  0.00    +0.000 HD
ATOM     33  H   UNL     1       0.514  -0.580  -0.455  0.00  0.00    +0.000 HD
BRANCH  31  34
ATOM     34  C   UNL     1       1.978   0.781  -1.248  0.00  0.00    +0.000 C 
ATOM     35  H   UNL     1       2.713   1.370  -0.691  0.00  0.00    +0.000 HD
ATOM     36  H   UNL     1       1.097   1.406  -1.422  0.00  0.00    +0.000 HD
ATOM     37  H   UNL     1       2.412   0.526  -2.220  0.00  0.00    +0.000 HD
ENDBRANCH  31  34
ENDBRANCH  28  31
ENDBRANCH  25  28
ENDBRANCH  22  25
ENDBRANCH   1  22
TORSDOF 11
ENDMDL
MODEL 9
REMARK VINA RESULT:    -4.276      2.270      4.099
REMARK INTER + INTRA:          -7.696
REMARK INTER:                  -6.632
REMARK INTRA:                  -1.064
REMARK UNBOUND:                -0.795
REMARK  Name = 8194
REMARK  11 active torsions:
REMARK  status: ('A' for Active; 'I' for Inactive)
REMARK    1  A    between atoms: C_2  and  C_3
REMARK    2  A    between atoms: C_2  and  C_4
REMARK    3  A    between atoms: C_3  and  C_5
REMARK    4  A    between atoms: C_4  and  C_6
REMARK    5  A    between atoms: C_5  and  C_7
REMARK    6  A    between atoms: C_6  and  C_8
REMARK    7  A    between atoms: C_7  and  C_9
REMARK    8  A    between atoms: C_8  and  C_10
REMARK    9  A    between atoms: C_9  and  C_11
REMARK   10  A    between atoms: C_10  and  C_12
REMARK   11  A    between atoms: C_11  and  C_13
REMARK                            x       y       z     vdW  Elec       q    Type
REMARK                         _______ _______ _______ _____ _____    ______ ____
ROOT
ATOM      1  C   UNL     1       2.597 -12.203   2.572  0.00  0.00    +0.000 C 
ATOM      2  H   UNL     1       1.752 -11.655   2.138  0.00  0.00    +0.000 HD
ATOM      3  H   UNL     1       2.782 -11.757   3.558  0.00  0.00    +0.000 HD
ENDROOT
BRANCH   1   4
ATOM      4  C   UNL     1       3.834 -11.973   1.699  0.00  0.00    +0.000 C 
ATOM      5  H   UNL     1       4.456 -12.877   1.720  0.00  0.00    +0.000 HD
ATOM      6  H   UNL     1       4.434 -11.166   2.138  0.00  0.00    +0.000 HD
BRANCH   4   7
ATOM      7  C   UNL     1       3.499 -11.620   0.248  0.00  0.00    +0.000 C 
ATOM      8  H   UNL     1       2.614 -12.182  -0.072  0.00  0.00    +0.000 HD
ATOM      9  H   UNL     1       3.247 -10.554   0.182  0.00  0.00    +0.000 HD
BRANCH   7  10
ATOM     10  C   UNL     1       4.674 -11.930  -0.683  0.00  0.00    +0.000 C 
ATOM     11  H   UNL     1       4.421 -12.777  -1.331  0.00  0.00    +0.000 HD
ATOM     12  H   UNL     1       4.864 -11.069  -1.334  0.00  0.00    +0.000 HD
BRANCH  10  13
ATOM     13  C   UNL     1       5.940 -12.260   0.114  0.00  0.00    +0.000 C 
ATOM     14  H   UNL     1       6.046 -13.350   0.193  0.00  0.00    +0.000 HD
ATOM     15  H   UNL     1       5.827 -11.885   1.139  0.00  0.00    +0.000 HD
BRANCH  13  16
ATOM     16  C   UNL     1       7.201 -11.669  -0.507  0.00  0.00    +0.000 C 
ATOM     17  H   UNL     1       6.949 -11.025  -1.355  0.00  0.00    +0.000 HD
ATOM     18  H   UNL     1       7.746 -11.072   0.230  0.00  0.00    +0.000 HD
BRANCH  16  20
ATOM     19  O   UNL     1       7.927 -13.943  -0.846  0.00  0.00    +0.000 OA
ATOM     20  C   UNL     1       8.136 -12.744  -1.002  0.00  0.00    +0.000 C 
ATOM     21  H   UNL     1       9.033 -12.386  -1.535  0.00  0.00    +0.000 HD
ENDBRANCH  16  20
ENDBRANCH  13  16
ENDBRANCH  10  13
ENDBRANCH   7  10
ENDBRANCH   4   7
ENDBRANCH   1   4
BRANCH   1  22
ATOM     22  C   UNL     1       2.185 -13.666   2.772  0.00  0.00    +0.000 C 
ATOM     23  H   UNL     1       2.224 -14.184   1.807  0.00  0.00    +0.000 HD
ATOM     24  H   UNL     1       1.140 -13.699   3.107  0.00  0.00    +0.000 HD
BRANCH  22  25
ATOM     25  C   UNL     1       3.065 -14.410   3.779  0.00  0.00    +0.000 C 
ATOM     26  H   UNL     1       3.680 -13.685   4.327  0.00  0.00    +0.000 HD
ATOM     27  H   UNL     1       2.424 -14.907   4.518  0.00  0.00    +0.000 HD
BRANCH  25  28
ATOM     28  C   UNL     1       3.981 -15.453   3.128  0.00  0.00    +0.000 C 
ATOM     29  H   UNL     1       3.975 -16.364   3.737  0.00  0.00    +0.000 HD
ATOM     30  H   UNL     1       5.011 -15.075   3.135  0.00  0.00    +0.000 HD
BRANCH  28  31
ATOM     31  C   UNL     1       3.581 -15.799   1.694  0.00  0.00    +0.000 C 
ATOM     32  H   UNL     1       2.737 -15.174   1.382  0.00  0.00    +0.000 HD
ATOM     33  H   UNL     1       3.249 -16.843   1.644  0.00  0.00    +0.000 HD
BRANCH  31  34
ATOM     34  C   UNL     1       4.741 -15.593   0.730  0.00  0.00    +0.000 C 
ATOM     35  H   UNL     1       4.392 -15.589  -0.307  0.00  0.00    +0.000 HD
ATOM     36  H   UNL     1       5.487 -16.386   0.839  0.00  0.00    +0.000 HD
ATOM     37  H   UNL     1       5.232 -14.635   0.928  0.00  0.00    +0.000 HD
ENDBRANCH  31  34
ENDBRANCH  28  31
ENDBRANCH  25  28
ENDBRANCH  22  25
ENDBRANCH   1  22
TORSDOF 11
ENDMDL
MODEL 10
REMARK VINA RESULT:    -4.270     17.567     18.703
REMARK INTER + INTRA:          -7.685
REMARK INTER:                  -7.086
REMARK INTRA:                  -0.599
REMARK UNBOUND:                -0.795
REMARK  Name = 8194
REMARK  11 active torsions:
REMARK  status: ('A' for Active; 'I' for Inactive)
REMARK    1  A    between atoms: C_2  and  C_3
REMARK    2  A    between atoms: C_2  and  C_4
REMARK    3  A    between atoms: C_3  and  C_5
REMARK    4  A    between atoms: C_4  and  C_6
REMARK    5  A    between atoms: C_5  and  C_7
REMARK    6  A    between atoms: C_6  and  C_8
REMARK    7  A    between atoms: C_7  and  C_9
REMARK    8  A    between atoms: C_8  and  C_10
REMARK    9  A    between atoms: C_9  and  C_11
REMARK   10  A    between atoms: C_10  and  C_12
REMARK   11  A    between atoms: C_11  and  C_13
REMARK                            x       y       z     vdW  Elec       q    Type
REMARK                         _______ _______ _______ _____ _____    ______ ____
ROOT
ATOM      1  C   UNL     1      -0.050  -7.453  17.387  0.00  0.00    +0.000 C 
ATOM      2  H   UNL     1       0.195  -6.798  18.232  0.00  0.00    +0.000 HD
ATOM      3  H   UNL     1      -0.873  -8.096  17.722  0.00  0.00    +0.000 HD
ENDROOT
BRANCH   1   4
ATOM      4  C   UNL     1       1.163  -8.337  17.083  0.00  0.00    +0.000 C 
ATOM      5  H   UNL     1       2.023  -7.970  17.657  0.00  0.00    +0.000 HD
ATOM      6  H   UNL     1       1.423  -8.231  16.023  0.00  0.00    +0.000 HD
BRANCH   4   7
ATOM      7  C   UNL     1       0.934  -9.817  17.400  0.00  0.00    +0.000 C 
ATOM      8  H   UNL     1       1.264 -10.429  16.553  0.00  0.00    +0.000 HD
ATOM      9  H   UNL     1       1.543 -10.103  18.265  0.00  0.00    +0.000 HD
BRANCH   7  10
ATOM     10  C   UNL     1      -0.542 -10.097  17.695  0.00  0.00    +0.000 C 
ATOM     11  H   UNL     1      -0.850  -9.556  18.597  0.00  0.00    +0.000 HD
ATOM     12  H   UNL     1      -1.159  -9.727  16.868  0.00  0.00    +0.000 HD
BRANCH  10  13
ATOM     13  C   UNL     1      -0.794 -11.595  17.891  0.00  0.00    +0.000 C 
ATOM     14  H   UNL     1      -0.611 -11.860  18.941  0.00  0.00    +0.000 HD
ATOM     15  H   UNL     1      -0.066 -12.162  17.296  0.00  0.00    +0.000 HD
BRANCH  13  16
ATOM     16  C   UNL     1      -2.207 -12.015  17.498  0.00  0.00    +0.000 C 
ATOM     17  H   UNL     1      -2.659 -12.631  18.282  0.00  0.00    +0.000 HD
ATOM     18  H   UNL     1      -2.838 -11.134  17.344  0.00  0.00    +0.000 HD
BRANCH  16  20
ATOM     19  O   UNL     1      -1.280 -13.515  15.855  0.00  0.00    +0.000 OA
ATOM     20  C   UNL     1      -2.217 -12.811  16.218  0.00  0.00    +0.000 C 
ATOM     21  H   UNL     1      -3.138 -12.733  15.616  0.00  0.00    +0.000 HD
ENDBRANCH  16  20
ENDBRANCH  13  16
ENDBRANCH  10  13
ENDBRANCH   7  10
ENDBRANCH   4   7
ENDBRANCH   1   4
BRANCH   1  22
ATOM     22  C   UNL     1      -0.553  -6.590  16.225  0.00  0.00    +0.000 C 
ATOM     23  H   UNL     1      -1.649  -6.564  16.246  0.00  0.00    +0.000 HD
ATOM     24  H   UNL     1      -0.266  -7.064  15.278  0.00  0.00    +0.000 HD
BRANCH  22  25
ATOM     25  C   UNL     1      -0.016  -5.157  16.258  0.00  0.00    +0.000 C 
ATOM     26  H   UNL     1      -0.855  -4.455  16.179  0.00  0.00    +0.000 HD
ATOM     27  H   UNL     1       0.461  -4.975  17.229  0.00  0.00    +0.000 HD
BRANCH  25  28
ATOM     28  C   UNL     1       0.991  -4.861  15.141  0.00  0.00    +0.000 C 
ATOM     29  H   UNL     1       0.479  -4.336  14.327  0.00  0.00    +0.000 HD
ATOM     30  H   UNL     1       1.353  -5.811  14.727  0.00  0.00    +0.000 HD
BRANCH  28  31
ATOM     31  C   UNL     1       2.186  -4.029  15.608  0.00  0.00    +0.000 C 
ATOM     32  H   UNL     1       1.833  -3.132  16.129  0.00  0.00    +0.000 HD
ATOM     33  H   UNL     1       2.766  -3.694  14.739  0.00  0.00    +0.000 HD
BRANCH  31  34
ATOM     34  C   UNL     1       3.088  -4.827  16.538  0.00  0.00    +0.000 C 
ATOM     35  H   UNL     1       4.133  -4.521  16.427  0.00  0.00    +0.000 HD
ATOM     36  H   UNL     1       3.019  -5.898  16.327  0.00  0.00    +0.000 HD
ATOM     37  H   UNL     1       2.795  -4.666  17.580  0.00  0.00    +0.000 HD
ENDBRANCH  31  34
ENDBRANCH  28  31
ENDBRANCH  25  28
ENDBRANCH  22  25
ENDBRANCH   1  22
TORSDOF 11
ENDMDL
