MODEL 1
REMARK VINA RESULT:    -4.212      0.000      0.000
REMARK INTER + INTRA:          -6.202
REMARK INTER:                  -5.860
REMARK INTRA:                  -0.341
REMARK UNBOUND:                -0.512
REMARK  Name = 5363374
REMARK  7 active torsions:
REMARK  status: ('A' for Active; 'I' for Inactive)
REMARK    1  A    between atoms: O_1  and  C_8
REMARK    2  A    between atoms: O_1  and  C_9
REMARK    3  A    between atoms: C_3  and  C_4
REMARK    4  A    between atoms: C_3  and  C_5
REMARK    5  A    between atoms: C_4  and  C_6
REMARK    6  A    between atoms: C_7  and  C_8
REMARK    7  A    between atoms: C_9  and  C_10
REMARK                            x       y       z     vdW  Elec       q    Type
REMARK                         _______ _______ _______ _____ _____    ______ ____
ROOT
ATOM      1  C   UNL     1       0.657  -4.985  15.507  0.00  0.00    +0.000 C 
ATOM      2  C   UNL     1       0.640  -6.279  15.155  0.00  0.00    +0.000 C 
ATOM      3  H   UNL     1      -0.281  -4.438  15.536  0.00  0.00    +0.000 HD
ATOM      4  H   UNL     1      -0.311  -6.739  14.897  0.00  0.00    +0.000 HD
ENDROOT
BRANCH   1   5
ATOM      5  C   UNL     1       1.902  -4.240  15.890  0.00  0.00    +0.000 C 
ATOM      6  H   UNL     1       2.756  -4.908  15.718  0.00  0.00    +0.000 HD
ATOM      7  H   UNL     1       1.937  -4.009  16.960  0.00  0.00    +0.000 HD
BRANCH   5   8
ATOM      8  C   UNL     1       2.074  -2.977  15.045  0.00  0.00    +0.000 C 
ATOM      9  H   UNL     1       1.612  -2.118  15.547  0.00  0.00    +0.000 HD
ATOM     10  H   UNL     1       1.566  -3.097  14.080  0.00  0.00    +0.000 HD
BRANCH   8  11
ATOM     11  C   UNL     1       3.543  -2.670  14.798  0.00  0.00    +0.000 C 
ATOM     12  H   UNL     1       3.932  -3.301  13.993  0.00  0.00    +0.000 HD
ATOM     13  H   UNL     1       3.681  -1.624  14.505  0.00  0.00    +0.000 HD
ATOM     14  H   UNL     1       4.140  -2.858  15.696  0.00  0.00    +0.000 HD
ENDBRANCH   8  11
ENDBRANCH   5   8
ENDBRANCH   1   5
BRANCH   2  15
ATOM     15  C   UNL     1       1.860  -7.140  15.100  0.00  0.00    +0.000 C 
ATOM     16  H   UNL     1       2.709  -6.556  15.477  0.00  0.00    +0.000 HD
ATOM     17  H   UNL     1       1.788  -8.053  15.696  0.00  0.00    +0.000 HD
BRANCH  15  18
ATOM     18  O   UNL     1       2.106  -7.496  13.747  0.00  0.00    +0.000 OA
BRANCH  18  20
ATOM     19  O   UNL     1       3.731  -8.660  12.589  0.00  0.00    +0.000 OA
ATOM     20  C   UNL     1       3.390  -7.863  13.452  0.00  0.00    +0.000 C 
BRANCH  20  21
ATOM     21  C   UNL     1       4.347  -7.140  14.352  0.00  0.00    +0.000 C 
ATOM     22  H   UNL     1       4.867  -7.857  14.992  0.00  0.00    +0.000 HD
ATOM     23  H   UNL     1       3.805  -6.406  14.954  0.00  0.00    +0.000 HD
ATOM     24  H   UNL     1       5.089  -6.614  13.744  0.00  0.00    +0.000 HD
ENDBRANCH  20  21
ENDBRANCH  18  20
ENDBRANCH  15  18
ENDBRANCH   2  15
TORSDOF 7
ENDMDL
MODEL 2
REMARK VINA RESULT:    -4.196      2.815      4.903
REMARK INTER + INTRA:          -6.179
REMARK INTER:                  -5.972
REMARK INTRA:                  -0.207
REMARK UNBOUND:                -0.512
REMARK  Name = 5363374
REMARK  7 active torsions:
REMARK  status: ('A' for Active; 'I' for Inactive)
REMARK    1  A    between atoms: O_1  and  C_8
REMARK    2  A    between atoms: O_1  and  C_9
REMARK    3  A    between atoms: C_3  and  C_4
REMARK    4  A    between atoms: C_3  and  C_5
REMARK    5  A    between atoms: C_4  and  C_6
REMARK    6  A    between atoms: C_7  and  C_8
REMARK    7  A    between atoms: C_9  and  C_10
REMARK                            x       y       z     vdW  Elec       q    Type
REMARK                         _______ _______ _______ _____ _____    ______ ____
ROOT
ATOM      1  C   UNL     1      -0.212  -6.801  15.713  0.00  0.00    +0.000 C 
ATOM      2  C   UNL     1       0.520  -5.849  15.117  0.00  0.00    +0.000 C 
ATOM      3  H   UNL     1      -0.491  -7.682  15.141  0.00  0.00    +0.000 HD
ATOM      4  H   UNL     1       0.803  -5.981  14.076  0.00  0.00    +0.000 HD
ENDROOT
BRANCH   1   5
ATOM      5  C   UNL     1      -0.659  -6.738  17.145  0.00  0.00    +0.000 C 
ATOM      6  H   UNL     1      -1.741  -6.925  17.164  0.00  0.00    +0.000 HD
ATOM      7  H   UNL     1      -0.539  -5.739  17.575  0.00  0.00    +0.000 HD
BRANCH   5   8
ATOM      8  C   UNL     1       0.049  -7.795  17.993  0.00  0.00    +0.000 C 
ATOM      9  H   UNL     1      -0.275  -7.724  19.038  0.00  0.00    +0.000 HD
ATOM     10  H   UNL     1       1.132  -7.624  17.980  0.00  0.00    +0.000 HD
BRANCH   8  11
ATOM     11  C   UNL     1      -0.239  -9.199  17.485  0.00  0.00    +0.000 C 
ATOM     12  H   UNL     1      -1.234  -9.242  17.031  0.00  0.00    +0.000 HD
ATOM     13  H   UNL     1       0.492  -9.499  16.726  0.00  0.00    +0.000 HD
ATOM     14  H   UNL     1      -0.206  -9.927  18.302  0.00  0.00    +0.000 HD
ENDBRANCH   8  11
ENDBRANCH   5   8
ENDBRANCH   1   5
BRANCH   2  15
ATOM     15  C   UNL     1       0.982  -4.606  15.805  0.00  0.00    +0.000 C 
ATOM     16  H   UNL     1       0.250  -3.813  15.610  0.00  0.00    +0.000 HD
ATOM     17  H   UNL     1       1.087  -4.709  16.888  0.00  0.00    +0.000 HD
BRANCH  15  18
ATOM     18  O   UNL     1       2.237  -4.222  15.260  0.00  0.00    +0.000 OA
BRANCH  18  20
ATOM     19  O   UNL     1       1.397  -2.160  14.645  0.00  0.00    +0.000 OA
ATOM     20  C   UNL     1       2.332  -2.923  14.843  0.00  0.00    +0.000 C 
BRANCH  20  21
ATOM     21  C   UNL     1       3.773  -2.552  14.656  0.00  0.00    +0.000 C 
ATOM     22  H   UNL     1       4.058  -1.793  15.388  0.00  0.00    +0.000 HD
ATOM     23  H   UNL     1       3.931  -2.187  13.637  0.00  0.00    +0.000 HD
ATOM     24  H   UNL     1       4.398  -3.437  14.809  0.00  0.00    +0.000 HD
ENDBRANCH  20  21
ENDBRANCH  18  20
ENDBRANCH  15  18
ENDBRANCH   2  15
TORSDOF 7
ENDMDL
MODEL 3
REMARK VINA RESULT:    -4.194     14.284     15.373
REMARK INTER + INTRA:          -6.177
REMARK INTER:                  -5.736
REMARK INTRA:                  -0.442
REMARK UNBOUND:                -0.512
REMARK  Name = 5363374
REMARK  7 active torsions:
REMARK  status: ('A' for Active; 'I' for Inactive)
REMARK    1  A    between atoms: O_1  and  C_8
REMARK    2  A    between atoms: O_1  and  C_9
REMARK    3  A    between atoms: C_3  and  C_4
REMARK    4  A    between atoms: C_3  and  C_5
REMARK    5  A    between atoms: C_4  and  C_6
REMARK    6  A    between atoms: C_7  and  C_8
REMARK    7  A    between atoms: C_9  and  C_10
REMARK                            x       y       z     vdW  Elec       q    Type
REMARK                         _______ _______ _______ _____ _____    ______ ____
ROOT
ATOM      1  C   UNL     1       2.778 -11.017   0.772  0.00  0.00    +0.000 C 
ATOM      2  C   UNL     1       3.534 -11.435  -0.253  0.00  0.00    +0.000 C 
ATOM      3  H   UNL     1       1.923 -10.379   0.566  0.00  0.00    +0.000 HD
ATOM      4  H   UNL     1       3.277 -11.111  -1.259  0.00  0.00    +0.000 HD
ENDROOT
BRANCH   1   5
ATOM      5  C   UNL     1       3.025 -11.399   2.203  0.00  0.00    +0.000 C 
ATOM      6  H   UNL     1       2.811 -10.518   2.823  0.00  0.00    +0.000 HD
ATOM      7  H   UNL     1       4.077 -11.630   2.396  0.00  0.00    +0.000 HD
BRANCH   5   8
ATOM      8  C   UNL     1       2.116 -12.550   2.634  0.00  0.00    +0.000 C 
ATOM      9  H   UNL     1       1.610 -12.983   1.762  0.00  0.00    +0.000 HD
ATOM     10  H   UNL     1       1.333 -12.180   3.308  0.00  0.00    +0.000 HD
BRANCH   8  11
ATOM     11  C   UNL     1       2.902 -13.644   3.339  0.00  0.00    +0.000 C 
ATOM     12  H   UNL     1       2.424 -13.903   4.289  0.00  0.00    +0.000 HD
ATOM     13  H   UNL     1       2.949 -14.550   2.726  0.00  0.00    +0.000 HD
ATOM     14  H   UNL     1       3.925 -13.318   3.551  0.00  0.00    +0.000 HD
ENDBRANCH   8  11
ENDBRANCH   5   8
ENDBRANCH   1   5
BRANCH   2  15
ATOM     15  C   UNL     1       4.719 -12.332  -0.098  0.00  0.00    +0.000 C 
ATOM     16  H   UNL     1       4.846 -12.551   0.969  0.00  0.00    +0.000 HD
ATOM     17  H   UNL     1       4.630 -13.283  -0.629  0.00  0.00    +0.000 HD
BRANCH  15  18
ATOM     18  O   UNL     1       5.872 -11.651  -0.573  0.00  0.00    +0.000 OA
BRANCH  18  20
ATOM     19  O   UNL     1       8.157 -11.693  -0.236  0.00  0.00    +0.000 OA
ATOM     20  C   UNL     1       7.009 -11.818   0.168  0.00  0.00    +0.000 C 
BRANCH  20  21
ATOM     21  C   UNL     1       6.651 -12.184   1.577  0.00  0.00    +0.000 C 
ATOM     22  H   UNL     1       5.792 -11.595   1.906  0.00  0.00    +0.000 HD
ATOM     23  H   UNL     1       7.510 -12.016   2.232  0.00  0.00    +0.000 HD
ATOM     24  H   UNL     1       6.383 -13.244   1.619  0.00  0.00    +0.000 HD
ENDBRANCH  20  21
ENDBRANCH  18  20
ENDBRANCH  15  18
ENDBRANCH   2  15
TORSDOF 7
ENDMDL
MODEL 4
REMARK VINA RESULT:    -4.164     14.369     15.559
REMARK INTER + INTRA:          -6.136
REMARK INTER:                  -5.523
REMARK INTRA:                  -0.613
REMARK UNBOUND:                -0.512
REMARK  Name = 5363374
REMARK  7 active torsions:
REMARK  status: ('A' for Active; 'I' for Inactive)
REMARK    1  A    between atoms: O_1  and  C_8
REMARK    2  A    between atoms: O_1  and  C_9
REMARK    3  A    between atoms: C_3  and  C_4
REMARK    4  A    between atoms: C_3  and  C_5
REMARK    5  A    between atoms: C_4  and  C_6
REMARK    6  A    between atoms: C_7  and  C_8
REMARK    7  A    between atoms: C_9  and  C_10
REMARK                            x       y       z     vdW  Elec       q    Type
REMARK                         _______ _______ _______ _____ _____    ______ ____
ROOT
ATOM      1  C   UNL     1       2.778 -11.153   0.655  0.00  0.00    +0.000 C 
ATOM      2  C   UNL     1       3.593 -11.404  -0.380  0.00  0.00    +0.000 C 
ATOM      3  H   UNL     1       1.814 -10.690   0.463  0.00  0.00    +0.000 HD
ATOM      4  H   UNL     1       3.270 -11.125  -1.379  0.00  0.00    +0.000 HD
ENDROOT
BRANCH   1   5
ATOM      5  C   UNL     1       3.106 -11.497   2.079  0.00  0.00    +0.000 C 
ATOM      6  H   UNL     1       3.009 -10.579   2.673  0.00  0.00    +0.000 HD
ATOM      7  H   UNL     1       4.149 -11.803   2.204  0.00  0.00    +0.000 HD
BRANCH   5   8
ATOM      8  C   UNL     1       2.148 -12.555   2.629  0.00  0.00    +0.000 C 
ATOM      9  H   UNL     1       1.601 -13.035   1.809  0.00  0.00    +0.000 HD
ATOM     10  H   UNL     1       1.402 -12.085   3.282  0.00  0.00    +0.000 HD
BRANCH   8  11
ATOM     11  C   UNL     1       2.893 -13.623   3.414  0.00  0.00    +0.000 C 
ATOM     12  H   UNL     1       2.308 -14.548   3.445  0.00  0.00    +0.000 HD
ATOM     13  H   UNL     1       3.859 -13.849   2.951  0.00  0.00    +0.000 HD
ATOM     14  H   UNL     1       3.072 -13.300   4.445  0.00  0.00    +0.000 HD
ENDBRANCH   8  11
ENDBRANCH   5   8
ENDBRANCH   1   5
BRANCH   2  15
ATOM     15  C   UNL     1       4.930 -12.056  -0.243  0.00  0.00    +0.000 C 
ATOM     16  H   UNL     1       5.623 -11.566  -0.938  0.00  0.00    +0.000 HD
ATOM     17  H   UNL     1       5.357 -11.992   0.760  0.00  0.00    +0.000 HD
BRANCH  15  18
ATOM     18  O   UNL     1       4.808 -13.426  -0.600  0.00  0.00    +0.000 OA
BRANCH  18  20
ATOM     19  O   UNL     1       4.608 -15.452   0.492  0.00  0.00    +0.000 OA
ATOM     20  C   UNL     1       5.077 -14.326   0.394  0.00  0.00    +0.000 C 
BRANCH  20  21
ATOM     21  C   UNL     1       6.049 -13.733   1.370  0.00  0.00    +0.000 C 
ATOM     22  H   UNL     1       7.008 -14.252   1.300  0.00  0.00    +0.000 HD
ATOM     23  H   UNL     1       5.644 -13.804   2.383  0.00  0.00    +0.000 HD
ATOM     24  H   UNL     1       6.205 -12.678   1.129  0.00  0.00    +0.000 HD
ENDBRANCH  20  21
ENDBRANCH  18  20
ENDBRANCH  15  18
ENDBRANCH   2  15
TORSDOF 7
ENDMDL
MODEL 5
REMARK VINA RESULT:    -3.986     16.238     17.138
REMARK INTER + INTRA:          -5.896
REMARK INTER:                  -5.561
REMARK INTRA:                  -0.335
REMARK UNBOUND:                -0.512
REMARK  Name = 5363374
REMARK  7 active torsions:
REMARK  status: ('A' for Active; 'I' for Inactive)
REMARK    1  A    between atoms: O_1  and  C_8
REMARK    2  A    between atoms: O_1  and  C_9
REMARK    3  A    between atoms: C_3  and  C_4
REMARK    4  A    between atoms: C_3  and  C_5
REMARK    5  A    between atoms: C_4  and  C_6
REMARK    6  A    between atoms: C_7  and  C_8
REMARK    7  A    between atoms: C_9  and  C_10
REMARK                            x       y       z     vdW  Elec       q    Type
REMARK                         _______ _______ _______ _____ _____    ______ ____
ROOT
ATOM      1  C   UNL     1       8.956 -11.340  -1.203  0.00  0.00    +0.000 C 
ATOM      2  C   UNL     1       8.508 -12.604  -1.222  0.00  0.00    +0.000 C 
ATOM      3  H   UNL     1       9.668 -11.025  -1.961  0.00  0.00    +0.000 HD
ATOM      4  H   UNL     1       8.881 -13.280  -1.987  0.00  0.00    +0.000 HD
ENDROOT
BRANCH   1   5
ATOM      5  C   UNL     1       8.513 -10.311  -0.203  0.00  0.00    +0.000 C 
ATOM      6  H   UNL     1       9.034 -10.519   0.740  0.00  0.00    +0.000 HD
ATOM      7  H   UNL     1       7.449 -10.397   0.039  0.00  0.00    +0.000 HD
BRANCH   5   8
ATOM      8  C   UNL     1       8.864  -8.898  -0.670  0.00  0.00    +0.000 C 
ATOM      9  H   UNL     1       8.631  -8.169   0.116  0.00  0.00    +0.000 HD
ATOM     10  H   UNL     1       8.261  -8.630  -1.546  0.00  0.00    +0.000 HD
BRANCH   8  11
ATOM     11  C   UNL     1      10.337  -8.781  -1.027  0.00  0.00    +0.000 C 
ATOM     12  H   UNL     1      10.659  -9.654  -1.603  0.00  0.00    +0.000 HD
ATOM     13  H   UNL     1      10.524  -7.888  -1.634  0.00  0.00    +0.000 HD
ATOM     14  H   UNL     1      10.956  -8.721  -0.126  0.00  0.00    +0.000 HD
ENDBRANCH   8  11
ENDBRANCH   5   8
ENDBRANCH   1   5
BRANCH   2  15
ATOM     15  C   UNL     1       7.513 -13.146  -0.248  0.00  0.00    +0.000 C 
ATOM     16  H   UNL     1       7.762 -14.196  -0.051  0.00  0.00    +0.000 HD
ATOM     17  H   UNL     1       7.493 -12.619   0.709  0.00  0.00    +0.000 HD
BRANCH  15  18
ATOM     18  O   UNL     1       6.220 -13.078  -0.832  0.00  0.00    +0.000 OA
BRANCH  18  20
ATOM     19  O   UNL     1       5.183 -12.421   1.125  0.00  0.00    +0.000 OA
ATOM     20  C   UNL     1       5.266 -12.431  -0.096  0.00  0.00    +0.000 C 
BRANCH  20  21
ATOM     21  C   UNL     1       4.314 -11.718  -1.008  0.00  0.00    +0.000 C 
ATOM     22  H   UNL     1       3.305 -11.753  -0.590  0.00  0.00    +0.000 HD
ATOM     23  H   UNL     1       4.338 -12.177  -2.000  0.00  0.00    +0.000 HD
ATOM     24  H   UNL     1       4.617 -10.671  -1.101  0.00  0.00    +0.000 HD
ENDBRANCH  20  21
ENDBRANCH  18  20
ENDBRANCH  15  18
ENDBRANCH   2  15
TORSDOF 7
ENDMDL
MODEL 6
REMARK VINA RESULT:    -3.977      2.861      4.348
REMARK INTER + INTRA:          -5.883
REMARK INTER:                  -5.455
REMARK INTRA:                  -0.429
REMARK UNBOUND:                -0.512
REMARK  Name = 5363374
REMARK  7 active torsions:
REMARK  status: ('A' for Active; 'I' for Inactive)
REMARK    1  A    between atoms: O_1  and  C_8
REMARK    2  A    between atoms: O_1  and  C_9
REMARK    3  A    between atoms: C_3  and  C_4
REMARK    4  A    between atoms: C_3  and  C_5
REMARK    5  A    between atoms: C_4  and  C_6
REMARK    6  A    between atoms: C_7  and  C_8
REMARK    7  A    between atoms: C_9  and  C_10
REMARK                            x       y       z     vdW  Elec       q    Type
REMARK                         _______ _______ _______ _____ _____    ______ ____
ROOT
ATOM      1  C   UNL     1      -0.411  -7.420  17.041  0.00  0.00    +0.000 C 
ATOM      2  C   UNL     1      -0.747  -6.251  16.478  0.00  0.00    +0.000 C 
ATOM      3  H   UNL     1      -1.189  -8.155  17.227  0.00  0.00    +0.000 HD
ATOM      4  H   UNL     1      -1.791  -6.068  16.236  0.00  0.00    +0.000 HD
ENDROOT
BRANCH   1   5
ATOM      5  C   UNL     1       0.994  -7.794  17.416  0.00  0.00    +0.000 C 
ATOM      6  H   UNL     1       1.673  -7.140  16.853  0.00  0.00    +0.000 HD
ATOM      7  H   UNL     1       1.254  -8.809  17.099  0.00  0.00    +0.000 HD
BRANCH   5   8
ATOM      8  C   UNL     1       1.238  -7.602  18.913  0.00  0.00    +0.000 C 
ATOM      9  H   UNL     1       1.499  -6.557  19.125  0.00  0.00    +0.000 HD
ATOM     10  H   UNL     1       2.086  -8.217  19.238  0.00  0.00    +0.000 HD
BRANCH   8  11
ATOM     11  C   UNL     1       0.011  -7.977  19.728  0.00  0.00    +0.000 C 
ATOM     12  H   UNL     1       0.140  -8.969  20.174  0.00  0.00    +0.000 HD
ATOM     13  H   UNL     1      -0.155  -7.261  20.540  0.00  0.00    +0.000 HD
ATOM     14  H   UNL     1      -0.885  -8.000  19.100  0.00  0.00    +0.000 HD
ENDBRANCH   8  11
ENDBRANCH   5   8
ENDBRANCH   1   5
BRANCH   2  15
ATOM     15  C   UNL     1       0.235  -5.173  16.154  0.00  0.00    +0.000 C 
ATOM     16  H   UNL     1      -0.211  -4.208  16.428  0.00  0.00    +0.000 HD
ATOM     17  H   UNL     1       1.188  -5.265  16.682  0.00  0.00    +0.000 HD
BRANCH  15  18
ATOM     18  O   UNL     1       0.485  -5.188  14.756  0.00  0.00    +0.000 OA
BRANCH  18  20
ATOM     19  O   UNL     1       2.462  -4.064  14.352  0.00  0.00    +0.000 OA
ATOM     20  C   UNL     1       1.797  -5.090  14.384  0.00  0.00    +0.000 C 
BRANCH  20  21
ATOM     21  C   UNL     1       2.325  -6.444  14.014  0.00  0.00    +0.000 C 
ATOM     22  H   UNL     1       1.574  -6.988  13.436  0.00  0.00    +0.000 HD
ATOM     23  H   UNL     1       2.592  -6.997  14.918  0.00  0.00    +0.000 HD
ATOM     24  H   UNL     1       3.222  -6.327  13.398  0.00  0.00    +0.000 HD
ENDBRANCH  20  21
ENDBRANCH  18  20
ENDBRANCH  15  18
ENDBRANCH   2  15
TORSDOF 7
ENDMDL
MODEL 7
REMARK VINA RESULT:    -3.946      1.954      3.150
REMARK INTER + INTRA:          -5.842
REMARK INTER:                  -5.457
REMARK INTRA:                  -0.385
REMARK UNBOUND:                -0.512
REMARK  Name = 5363374
REMARK  7 active torsions:
REMARK  status: ('A' for Active; 'I' for Inactive)
REMARK    1  A    between atoms: O_1  and  C_8
REMARK    2  A    between atoms: O_1  and  C_9
REMARK    3  A    between atoms: C_3  and  C_4
REMARK    4  A    between atoms: C_3  and  C_5
REMARK    5  A    between atoms: C_4  and  C_6
REMARK    6  A    between atoms: C_7  and  C_8
REMARK    7  A    between atoms: C_9  and  C_10
REMARK                            x       y       z     vdW  Elec       q    Type
REMARK                         _______ _______ _______ _____ _____    ______ ____
ROOT
ATOM      1  C   UNL     1       2.675  -4.599  16.142  0.00  0.00    +0.000 C 
ATOM      2  C   UNL     1       2.876  -5.904  15.911  0.00  0.00    +0.000 C 
ATOM      3  H   UNL     1       3.338  -4.079  16.828  0.00  0.00    +0.000 HD
ATOM      4  H   UNL     1       3.689  -6.408  16.429  0.00  0.00    +0.000 HD
ENDROOT
BRANCH   1   5
ATOM      5  C   UNL     1       1.592  -3.792  15.486  0.00  0.00    +0.000 C 
ATOM      6  H   UNL     1       0.928  -3.421  16.277  0.00  0.00    +0.000 HD
ATOM      7  H   UNL     1       0.950  -4.401  14.842  0.00  0.00    +0.000 HD
BRANCH   5   8
ATOM      8  C   UNL     1       2.174  -2.602  14.721  0.00  0.00    +0.000 C 
ATOM      9  H   UNL     1       1.820  -1.660  15.156  0.00  0.00    +0.000 HD
ATOM     10  H   UNL     1       1.834  -2.622  13.678  0.00  0.00    +0.000 HD
BRANCH   8  11
ATOM     11  C   UNL     1       3.694  -2.615  14.747  0.00  0.00    +0.000 C 
ATOM     12  H   UNL     1       4.086  -3.066  13.830  0.00  0.00    +0.000 HD
ATOM     13  H   UNL     1       4.094  -1.598  14.821  0.00  0.00    +0.000 HD
ATOM     14  H   UNL     1       4.067  -3.195  15.597  0.00  0.00    +0.000 HD
ENDBRANCH   8  11
ENDBRANCH   5   8
ENDBRANCH   1   5
BRANCH   2  15
ATOM     15  C   UNL     1       2.046  -6.718  14.973  0.00  0.00    +0.000 C 
ATOM     16  H   UNL     1       1.355  -6.044  14.453  0.00  0.00    +0.000 HD
ATOM     17  H   UNL     1       2.625  -7.256  14.219  0.00  0.00    +0.000 HD
BRANCH  15  18
ATOM     18  O   UNL     1       1.295  -7.659  15.728  0.00  0.00    +0.000 OA
BRANCH  18  20
ATOM     19  O   UNL     1      -0.677  -6.465  15.571  0.00  0.00    +0.000 OA
ATOM     20  C   UNL     1       0.071  -7.231  16.163  0.00  0.00    +0.000 C 
BRANCH  20  21
ATOM     21  C   UNL     1      -0.239  -7.843  17.496  0.00  0.00    +0.000 C 
ATOM     22  H   UNL     1      -0.119  -7.096  18.284  0.00  0.00    +0.000 HD
ATOM     23  H   UNL     1       0.419  -8.699  17.672  0.00  0.00    +0.000 HD
ATOM     24  H   UNL     1      -1.275  -8.193  17.503  0.00  0.00    +0.000 HD
ENDBRANCH  20  21
ENDBRANCH  18  20
ENDBRANCH  15  18
ENDBRANCH   2  15
TORSDOF 7
ENDMDL
MODEL 8
REMARK VINA RESULT:    -3.871      1.790      3.632
REMARK INTER + INTRA:          -5.740
REMARK INTER:                  -5.228
REMARK INTRA:                  -0.512
REMARK UNBOUND:                -0.512
REMARK  Name = 5363374
REMARK  7 active torsions:
REMARK  status: ('A' for Active; 'I' for Inactive)
REMARK    1  A    between atoms: O_1  and  C_8
REMARK    2  A    between atoms: O_1  and  C_9
REMARK    3  A    between atoms: C_3  and  C_4
REMARK    4  A    between atoms: C_3  and  C_5
REMARK    5  A    between atoms: C_4  and  C_6
REMARK    6  A    between atoms: C_7  and  C_8
REMARK    7  A    between atoms: C_9  and  C_10
REMARK                            x       y       z     vdW  Elec       q    Type
REMARK                         _______ _______ _______ _____ _____    ______ ____
ROOT
ATOM      1  C   UNL     1       3.336  -4.063  15.671  0.00  0.00    +0.000 C 
ATOM      2  C   UNL     1       2.220  -3.626  15.070  0.00  0.00    +0.000 C 
ATOM      3  H   UNL     1       4.297  -3.682  15.334  0.00  0.00    +0.000 HD
ATOM      4  H   UNL     1       2.310  -2.912  14.255  0.00  0.00    +0.000 HD
ENDROOT
BRANCH   1   5
ATOM      5  C   UNL     1       3.344  -5.042  16.809  0.00  0.00    +0.000 C 
ATOM      6  H   UNL     1       2.302  -5.317  17.018  0.00  0.00    +0.000 HD
ATOM      7  H   UNL     1       3.709  -4.595  17.739  0.00  0.00    +0.000 HD
BRANCH   5   8
ATOM      8  C   UNL     1       4.135  -6.301  16.452  0.00  0.00    +0.000 C 
ATOM      9  H   UNL     1       3.650  -7.188  16.878  0.00  0.00    +0.000 HD
ATOM     10  H   UNL     1       5.143  -6.248  16.882  0.00  0.00    +0.000 HD
BRANCH   8  11
ATOM     11  C   UNL     1       4.247  -6.478  14.946  0.00  0.00    +0.000 C 
ATOM     12  H   UNL     1       4.247  -7.542  14.688  0.00  0.00    +0.000 HD
ATOM     13  H   UNL     1       3.403  -6.006  14.432  0.00  0.00    +0.000 HD
ATOM     14  H   UNL     1       5.174  -6.037  14.567  0.00  0.00    +0.000 HD
ENDBRANCH   8  11
ENDBRANCH   5   8
ENDBRANCH   1   5
BRANCH   2  15
ATOM     15  C   UNL     1       0.845  -4.060  15.458  0.00  0.00    +0.000 C 
ATOM     16  H   UNL     1       0.868  -4.373  16.510  0.00  0.00    +0.000 HD
ATOM     17  H   UNL     1       0.086  -3.281  15.356  0.00  0.00    +0.000 HD
BRANCH  15  18
ATOM     18  O   UNL     1       0.472  -5.169  14.653  0.00  0.00    +0.000 OA
BRANCH  18  20
ATOM     19  O   UNL     1       0.886  -7.422  14.954  0.00  0.00    +0.000 OA
ATOM     20  C   UNL     1       0.369  -6.369  15.302  0.00  0.00    +0.000 C 
BRANCH  20  21
ATOM     21  C   UNL     1      -0.482  -6.215  16.526  0.00  0.00    +0.000 C 
ATOM     22  H   UNL     1      -0.184  -5.318  17.075  0.00  0.00    +0.000 HD
ATOM     23  H   UNL     1      -0.387  -7.104  17.156  0.00  0.00    +0.000 HD
ATOM     24  H   UNL     1      -1.530  -6.110  16.228  0.00  0.00    +0.000 HD
ENDBRANCH  20  21
ENDBRANCH  18  20
ENDBRANCH  15  18
ENDBRANCH   2  15
TORSDOF 7
ENDMDL
MODEL 9
REMARK VINA RESULT:    -3.870     14.072     15.985
REMARK INTER + INTRA:          -5.739
REMARK INTER:                  -5.560
REMARK INTRA:                  -0.179
REMARK UNBOUND:                -0.512
REMARK  Name = 5363374
REMARK  7 active torsions:
REMARK  status: ('A' for Active; 'I' for Inactive)
REMARK    1  A    between atoms: O_1  and  C_8
REMARK    2  A    between atoms: O_1  and  C_9
REMARK    3  A    between atoms: C_3  and  C_4
REMARK    4  A    between atoms: C_3  and  C_5
REMARK    5  A    between atoms: C_4  and  C_6
REMARK    6  A    between atoms: C_7  and  C_8
REMARK    7  A    between atoms: C_9  and  C_10
REMARK                            x       y       z     vdW  Elec       q    Type
REMARK                         _______ _______ _______ _____ _____    ______ ____
ROOT
ATOM      1  C   UNL     1       7.131 -12.724  -0.475  0.00  0.00    +0.000 C 
ATOM      2  C   UNL     1       5.842 -13.096  -0.484  0.00  0.00    +0.000 C 
ATOM      3  H   UNL     1       7.870 -13.385  -0.919  0.00  0.00    +0.000 HD
ATOM      4  H   UNL     1       5.578 -14.054  -0.924  0.00  0.00    +0.000 HD
ENDROOT
BRANCH   1   5
ATOM      5  C   UNL     1       7.622 -11.426   0.097  0.00  0.00    +0.000 C 
ATOM      6  H   UNL     1       8.159 -11.654   1.027  0.00  0.00    +0.000 HD
ATOM      7  H   UNL     1       6.802 -10.767   0.400  0.00  0.00    +0.000 HD
BRANCH   5   8
ATOM      8  C   UNL     1       8.571 -10.718  -0.871  0.00  0.00    +0.000 C 
ATOM      9  H   UNL     1       8.253 -10.886  -1.907  0.00  0.00    +0.000 HD
ATOM     10  H   UNL     1       9.583 -11.130  -0.776  0.00  0.00    +0.000 HD
BRANCH   8  11
ATOM     11  C   UNL     1       8.618  -9.221  -0.608  0.00  0.00    +0.000 C 
ATOM     12  H   UNL     1       7.649  -8.870  -0.239  0.00  0.00    +0.000 HD
ATOM     13  H   UNL     1       9.374  -8.978   0.145  0.00  0.00    +0.000 HD
ATOM     14  H   UNL     1       8.853  -8.669  -1.524  0.00  0.00    +0.000 HD
ENDBRANCH   8  11
ENDBRANCH   5   8
ENDBRANCH   1   5
BRANCH   2  15
ATOM     15  C   UNL     1       4.735 -12.263   0.075  0.00  0.00    +0.000 C 
ATOM     16  H   UNL     1       4.948 -11.211  -0.153  0.00  0.00    +0.000 HD
ATOM     17  H   UNL     1       3.750 -12.502  -0.331  0.00  0.00    +0.000 HD
BRANCH  15  18
ATOM     18  O   UNL     1       4.702 -12.435   1.484  0.00  0.00    +0.000 OA
BRANCH  18  20
ATOM     19  O   UNL     1       3.104 -12.633   3.141  0.00  0.00    +0.000 OA
ATOM     20  C   UNL     1       3.508 -12.154   2.090  0.00  0.00    +0.000 C 
BRANCH  20  21
ATOM     21  C   UNL     1       2.743 -11.157   1.274  0.00  0.00    +0.000 C 
ATOM     22  H   UNL     1       1.671 -11.341   1.372  0.00  0.00    +0.000 HD
ATOM     23  H   UNL     1       3.053 -11.221   0.227  0.00  0.00    +0.000 HD
ATOM     24  H   UNL     1       2.959 -10.148   1.639  0.00  0.00    +0.000 HD
ENDBRANCH  20  21
ENDBRANCH  18  20
ENDBRANCH  15  18
ENDBRANCH   2  15
TORSDOF 7
ENDMDL
MODEL 10
REMARK VINA RESULT:    -3.811     15.038     17.025
REMARK INTER + INTRA:          -5.660
REMARK INTER:                  -5.385
REMARK INTRA:                  -0.275
REMARK UNBOUND:                -0.512
REMARK  Name = 5363374
REMARK  7 active torsions:
REMARK  status: ('A' for Active; 'I' for Inactive)
REMARK    1  A    between atoms: O_1  and  C_8
REMARK    2  A    between atoms: O_1  and  C_9
REMARK    3  A    between atoms: C_3  and  C_4
REMARK    4  A    between atoms: C_3  and  C_5
REMARK    5  A    between atoms: C_4  and  C_6
REMARK    6  A    between atoms: C_7  and  C_8
REMARK    7  A    between atoms: C_9  and  C_10
REMARK                            x       y       z     vdW  Elec       q    Type
REMARK                         _______ _______ _______ _____ _____    ______ ____
ROOT
ATOM      1  C   UNL     1       8.551  -9.659  -0.598  0.00  0.00    +0.000 C 
ATOM      2  C   UNL     1       7.818 -10.782  -0.590  0.00  0.00    +0.000 C 
ATOM      3  H   UNL     1       8.061  -8.715  -0.816  0.00  0.00    +0.000 HD
ATOM      4  H   UNL     1       6.756 -10.715  -0.815  0.00  0.00    +0.000 HD
ENDROOT
BRANCH   1   5
ATOM      5  C   UNL     1      10.022  -9.620  -0.300  0.00  0.00    +0.000 C 
ATOM      6  H   UNL     1      10.396 -10.651  -0.335  0.00  0.00    +0.000 HD
ATOM      7  H   UNL     1      10.231  -9.279   0.719  0.00  0.00    +0.000 HD
BRANCH   5   8
ATOM      8  C   UNL     1      10.774  -8.776  -1.330  0.00  0.00    +0.000 C 
ATOM      9  H   UNL     1      11.501  -8.125  -0.830  0.00  0.00    +0.000 HD
ATOM     10  H   UNL     1      10.074  -8.124  -1.867  0.00  0.00    +0.000 HD
BRANCH   8  11
ATOM     11  C   UNL     1      11.508  -9.651  -2.334  0.00  0.00    +0.000 C 
ATOM     12  H   UNL     1      12.573  -9.701  -2.087  0.00  0.00    +0.000 HD
ATOM     13  H   UNL     1      11.111 -10.672  -2.330  0.00  0.00    +0.000 HD
ATOM     14  H   UNL     1      11.414  -9.248  -3.348  0.00  0.00    +0.000 HD
ENDBRANCH   8  11
ENDBRANCH   5   8
ENDBRANCH   1   5
BRANCH   2  15
ATOM     15  C   UNL     1       8.375 -12.134  -0.283  0.00  0.00    +0.000 C 
ATOM     16  H   UNL     1       8.105 -12.811  -1.104  0.00  0.00    +0.000 HD
ATOM     17  H   UNL     1       9.461 -12.154  -0.174  0.00  0.00    +0.000 HD
BRANCH  15  18
ATOM     18  O   UNL     1       7.786 -12.607   0.920  0.00  0.00    +0.000 OA
BRANCH  18  20
ATOM     19  O   UNL     1       6.006 -13.758   0.001  0.00  0.00    +0.000 OA
ATOM     20  C   UNL     1       6.477 -12.992   0.831  0.00  0.00    +0.000 C 
BRANCH  20  21
ATOM     21  C   UNL     1       5.677 -12.334   1.915  0.00  0.00    +0.000 C 
ATOM     22  H   UNL     1       4.927 -11.674   1.473  0.00  0.00    +0.000 HD
ATOM     23  H   UNL     1       6.343 -11.775   2.578  0.00  0.00    +0.000 HD
ATOM     24  H   UNL     1       5.164 -13.101   2.503  0.00  0.00    +0.000 HD
ENDBRANCH  20  21
ENDBRANCH  18  20
ENDBRANCH  15  18
ENDBRANCH   2  15
TORSDOF 7
ENDMDL
