MODEL 1
REMARK VINA RESULT:    -4.949      0.000      0.000
REMARK INTER + INTRA:          -6.257
REMARK INTER:                  -6.095
REMARK INTRA:                  -0.162
REMARK UNBOUND:                -0.151
REMARK  Name = 8467
REMARK  5 active torsions:
REMARK  status: ('A' for Active; 'I' for Inactive)
REMARK    1  A    between atoms: O_1  and  C_4
REMARK    2  A    between atoms: O_1  and  C_8
REMARK    3  A    between atoms: O_2  and  C_6
REMARK    4  A    between atoms: C_7  and  C_12
REMARK    5  A    between atoms: C_8  and  C_11
REMARK                            x       y       z     vdW  Elec       q    Type
REMARK                         _______ _______ _______ _____ _____    ______ ____
ROOT
ATOM      1  C   UNL     1     -17.555  -1.474   8.663  0.00  0.00    +0.000 A 
ATOM      2  C   UNL     1     -18.391  -2.058   9.615  0.00  0.00    +0.000 A 
ATOM      3  C   UNL     1     -18.056  -1.140   7.405  0.00  0.00    +0.000 A 
ATOM      4  C   UNL     1     -19.729  -2.307   9.308  0.00  0.00    +0.000 A 
ATOM      5  C   UNL     1     -19.393  -1.390   7.098  0.00  0.00    +0.000 A 
ATOM      6  C   UNL     1     -20.230  -1.973   8.049  0.00  0.00    +0.000 A 
ATOM      7  H   UNL     1     -17.991  -2.324  10.590  0.00  0.00    +0.000 HD
ATOM      8  H   UNL     1     -19.797  -1.133   6.121  0.00  0.00    +0.000 HD
ATOM      9  H   UNL     1     -21.270  -2.161   7.795  0.00  0.00    +0.000 HD
ENDROOT
BRANCH   4  11
ATOM     10  O   UNL     1     -21.712  -3.379  10.026  0.00  0.00    +0.000 OA
ATOM     11  C   UNL     1     -20.601  -2.914  10.299  0.00  0.00    +0.000 C 
ATOM     12  H   UNL     1     -20.225  -2.948  11.336  0.00  0.00    +0.000 HD
ENDBRANCH   4  11
BRANCH   3  13
ATOM     13  O   UNL     1     -17.248  -0.570   6.468  0.00  0.00    +0.000 OA
ATOM     14  H   UNL     1     -17.353   0.397   6.505  0.00  0.00    +0.000 HD
ENDBRANCH   3  13
BRANCH   1  15
ATOM     15  O   UNL     1     -16.250  -1.235   8.974  0.00  0.00    +0.000 OA
BRANCH  15  16
ATOM     16  C   UNL     1     -15.783  -1.722  10.231  0.00  0.00    +0.000 C 
ATOM     17  H   UNL     1     -16.603  -1.785  10.957  0.00  0.00    +0.000 HD
ATOM     18  H   UNL     1     -15.359  -2.722  10.089  0.00  0.00    +0.000 HD
BRANCH  16  19
ATOM     19  C   UNL     1     -14.721  -0.782  10.760  0.00  0.00    +0.000 C 
ATOM     20  H   UNL     1     -15.124  -0.142  11.551  0.00  0.00    +0.000 HD
ATOM     21  H   UNL     1     -13.873  -1.347  11.161  0.00  0.00    +0.000 HD
ATOM     22  H   UNL     1     -14.332  -0.150   9.956  0.00  0.00    +0.000 HD
ENDBRANCH  16  19
ENDBRANCH  15  16
ENDBRANCH   1  15
TORSDOF 5
ENDMDL
MODEL 2
REMARK VINA RESULT:    -4.941     20.724     22.416
REMARK INTER + INTRA:          -6.248
REMARK INTER:                  -5.998
REMARK INTRA:                  -0.250
REMARK UNBOUND:                -0.151
REMARK  Name = 8467
REMARK  5 active torsions:
REMARK  status: ('A' for Active; 'I' for Inactive)
REMARK    1  A    between atoms: O_1  and  C_4
REMARK    2  A    between atoms: O_1  and  C_8
REMARK    3  A    between atoms: O_2  and  C_6
REMARK    4  A    between atoms: C_7  and  C_12
REMARK    5  A    between atoms: C_8  and  C_11
REMARK                            x       y       z     vdW  Elec       q    Type
REMARK                         _______ _______ _______ _____ _____    ______ ____
ROOT
ATOM      1  C   UNL     1       2.734  -6.159  15.255  0.00  0.00    +0.000 A 
ATOM      2  C   UNL     1       3.314  -4.915  15.004  0.00  0.00    +0.000 A 
ATOM      3  C   UNL     1       1.386  -6.243  15.599  0.00  0.00    +0.000 A 
ATOM      4  C   UNL     1       2.544  -3.756  15.096  0.00  0.00    +0.000 A 
ATOM      5  C   UNL     1       0.615  -5.084  15.691  0.00  0.00    +0.000 A 
ATOM      6  C   UNL     1       1.194  -3.840  15.440  0.00  0.00    +0.000 A 
ATOM      7  H   UNL     1       4.368  -4.857  14.746  0.00  0.00    +0.000 HD
ATOM      8  H   UNL     1      -0.438  -5.136  15.958  0.00  0.00    +0.000 HD
ATOM      9  H   UNL     1       0.581  -2.946  15.516  0.00  0.00    +0.000 HD
ENDROOT
BRANCH   4  11
ATOM     10  O   UNL     1       4.285  -2.326  14.375  0.00  0.00    +0.000 OA
ATOM     11  C   UNL     1       3.146  -2.460  14.833  0.00  0.00    +0.000 C 
ATOM     12  H   UNL     1       2.532  -1.572  15.063  0.00  0.00    +0.000 HD
ENDBRANCH   4  11
BRANCH   3  13
ATOM     13  O   UNL     1       0.809  -7.452  15.847  0.00  0.00    +0.000 OA
ATOM     14  H   UNL     1       0.720  -7.570  16.809  0.00  0.00    +0.000 HD
ENDBRANCH   3  13
BRANCH   1  15
ATOM     15  O   UNL     1       3.497  -7.285  15.162  0.00  0.00    +0.000 OA
BRANCH  15  16
ATOM     16  C   UNL     1       4.148  -7.525  13.917  0.00  0.00    +0.000 C 
ATOM     17  H   UNL     1       4.383  -6.583  13.407  0.00  0.00    +0.000 HD
ATOM     18  H   UNL     1       5.082  -8.068  14.103  0.00  0.00    +0.000 HD
BRANCH  16  19
ATOM     19  C   UNL     1       3.238  -8.353  13.036  0.00  0.00    +0.000 C 
ATOM     20  H   UNL     1       3.711  -9.302  12.765  0.00  0.00    +0.000 HD
ATOM     21  H   UNL     1       2.293  -8.563  13.548  0.00  0.00    +0.000 HD
ATOM     22  H   UNL     1       2.989  -7.808  12.120  0.00  0.00    +0.000 HD
ENDBRANCH  16  19
ENDBRANCH  15  16
ENDBRANCH   1  15
TORSDOF 5
ENDMDL
MODEL 3
REMARK VINA RESULT:    -4.934     24.256     26.039
REMARK INTER + INTRA:          -6.239
REMARK INTER:                  -5.997
REMARK INTRA:                  -0.243
REMARK UNBOUND:                -0.151
REMARK  Name = 8467
REMARK  5 active torsions:
REMARK  status: ('A' for Active; 'I' for Inactive)
REMARK    1  A    between atoms: O_1  and  C_4
REMARK    2  A    between atoms: O_1  and  C_8
REMARK    3  A    between atoms: O_2  and  C_6
REMARK    4  A    between atoms: C_7  and  C_12
REMARK    5  A    between atoms: C_8  and  C_11
REMARK                            x       y       z     vdW  Elec       q    Type
REMARK                         _______ _______ _______ _____ _____    ______ ____
ROOT
ATOM      1  C   UNL     1       4.392 -12.563   1.460  0.00  0.00    +0.000 A 
ATOM      2  C   UNL     1       4.524 -13.824   2.042  0.00  0.00    +0.000 A 
ATOM      3  C   UNL     1       3.265 -11.786   1.726  0.00  0.00    +0.000 A 
ATOM      4  C   UNL     1       3.528 -14.307   2.891  0.00  0.00    +0.000 A 
ATOM      5  C   UNL     1       2.270 -12.270   2.575  0.00  0.00    +0.000 A 
ATOM      6  C   UNL     1       2.400 -13.530   3.157  0.00  0.00    +0.000 A 
ATOM      7  H   UNL     1       5.401 -14.428   1.822  0.00  0.00    +0.000 HD
ATOM      8  H   UNL     1       1.386 -11.674   2.792  0.00  0.00    +0.000 HD
ATOM      9  H   UNL     1       1.616 -13.893   3.817  0.00  0.00    +0.000 HD
ENDROOT
BRANCH   4  11
ATOM     10  O   UNL     1       2.898 -16.046   4.367  0.00  0.00    +0.000 OA
ATOM     11  C   UNL     1       3.665 -15.621   3.498  0.00  0.00    +0.000 C 
ATOM     12  H   UNL     1       4.504 -16.245   3.144  0.00  0.00    +0.000 HD
ENDBRANCH   4  11
BRANCH   3  13
ATOM     13  O   UNL     1       3.126 -10.554   1.164  0.00  0.00    +0.000 OA
ATOM     14  H   UNL     1       3.990 -10.106   1.162  0.00  0.00    +0.000 HD
ENDBRANCH   3  13
BRANCH   1  15
ATOM     15  O   UNL     1       5.371 -12.101   0.632  0.00  0.00    +0.000 OA
BRANCH  15  16
ATOM     16  C   UNL     1       5.647 -12.869  -0.538  0.00  0.00    +0.000 C 
ATOM     17  H   UNL     1       6.589 -12.552  -1.002  0.00  0.00    +0.000 HD
ATOM     18  H   UNL     1       5.729 -13.926  -0.258  0.00  0.00    +0.000 HD
BRANCH  16  19
ATOM     19  C   UNL     1       4.517 -12.684  -1.527  0.00  0.00    +0.000 C 
ATOM     20  H   UNL     1       3.921 -13.597  -1.616  0.00  0.00    +0.000 HD
ATOM     21  H   UNL     1       3.861 -11.864  -1.214  0.00  0.00    +0.000 HD
ATOM     22  H   UNL     1       4.909 -12.419  -2.514  0.00  0.00    +0.000 HD
ENDBRANCH  16  19
ENDBRANCH  15  16
ENDBRANCH   1  15
TORSDOF 5
ENDMDL
MODEL 4
REMARK VINA RESULT:    -4.887     19.986     21.354
REMARK INTER + INTRA:          -6.181
REMARK INTER:                  -6.002
REMARK INTRA:                  -0.179
REMARK UNBOUND:                -0.151
REMARK  Name = 8467
REMARK  5 active torsions:
REMARK  status: ('A' for Active; 'I' for Inactive)
REMARK    1  A    between atoms: O_1  and  C_4
REMARK    2  A    between atoms: O_1  and  C_8
REMARK    3  A    between atoms: O_2  and  C_6
REMARK    4  A    between atoms: C_7  and  C_12
REMARK    5  A    between atoms: C_8  and  C_11
REMARK                            x       y       z     vdW  Elec       q    Type
REMARK                         _______ _______ _______ _____ _____    ______ ____
ROOT
ATOM      1  C   UNL     1       1.466  -6.929  15.120  0.00  0.00    +0.000 A 
ATOM      2  C   UNL     1       1.389  -8.063  15.928  0.00  0.00    +0.000 A 
ATOM      3  C   UNL     1       0.554  -5.888  15.290  0.00  0.00    +0.000 A 
ATOM      4  C   UNL     1       0.400  -8.156  16.907  0.00  0.00    +0.000 A 
ATOM      5  C   UNL     1      -0.435  -5.981  16.269  0.00  0.00    +0.000 A 
ATOM      6  C   UNL     1      -0.514  -7.114  17.077  0.00  0.00    +0.000 A 
ATOM      7  H   UNL     1       2.098  -8.875  15.783  0.00  0.00    +0.000 HD
ATOM      8  H   UNL     1      -1.152  -5.176  16.413  0.00  0.00    +0.000 HD
ATOM      9  H   UNL     1      -1.290  -7.172  17.836  0.00  0.00    +0.000 HD
ENDROOT
BRANCH   4  11
ATOM     10  O   UNL     1      -0.584 -10.174  17.654  0.00  0.00    +0.000 OA
ATOM     11  C   UNL     1       0.319  -9.338  17.750  0.00  0.00    +0.000 C 
ATOM     12  H   UNL     1       1.118  -9.466  18.500  0.00  0.00    +0.000 HD
ENDBRANCH   4  11
BRANCH   3  13
ATOM     13  O   UNL     1       0.620  -4.776  14.507  0.00  0.00    +0.000 OA
ATOM     14  H   UNL     1      -0.182  -4.726  13.958  0.00  0.00    +0.000 HD
ENDBRANCH   3  13
BRANCH   1  15
ATOM     15  O   UNL     1       2.437  -6.849  14.168  0.00  0.00    +0.000 OA
BRANCH  15  16
ATOM     16  C   UNL     1       2.446  -7.863  13.164  0.00  0.00    +0.000 C 
ATOM     17  H   UNL     1       1.708  -8.643  13.387  0.00  0.00    +0.000 HD
ATOM     18  H   UNL     1       2.198  -7.409  12.197  0.00  0.00    +0.000 HD
BRANCH  16  19
ATOM     19  C   UNL     1       3.824  -8.485  13.103  0.00  0.00    +0.000 C 
ATOM     20  H   UNL     1       4.020  -8.906  12.112  0.00  0.00    +0.000 HD
ATOM     21  H   UNL     1       4.594  -7.738  13.327  0.00  0.00    +0.000 HD
ATOM     22  H   UNL     1       3.922  -9.277  13.850  0.00  0.00    +0.000 HD
ENDBRANCH  16  19
ENDBRANCH  15  16
ENDBRANCH   1  15
TORSDOF 5
ENDMDL
MODEL 5
REMARK VINA RESULT:    -4.874     24.641     26.279
REMARK INTER + INTRA:          -6.164
REMARK INTER:                  -5.940
REMARK INTRA:                  -0.225
REMARK UNBOUND:                -0.151
REMARK  Name = 8467
REMARK  5 active torsions:
REMARK  status: ('A' for Active; 'I' for Inactive)
REMARK    1  A    between atoms: O_1  and  C_4
REMARK    2  A    between atoms: O_1  and  C_8
REMARK    3  A    between atoms: O_2  and  C_6
REMARK    4  A    between atoms: C_7  and  C_12
REMARK    5  A    between atoms: C_8  and  C_11
REMARK                            x       y       z     vdW  Elec       q    Type
REMARK                         _______ _______ _______ _____ _____    ______ ____
ROOT
ATOM      1  C   UNL     1       4.627 -12.645   0.645  0.00  0.00    +0.000 A 
ATOM      2  C   UNL     1       4.375 -13.410   1.783  0.00  0.00    +0.000 A 
ATOM      3  C   UNL     1       3.822 -11.545   0.351  0.00  0.00    +0.000 A 
ATOM      4  C   UNL     1       3.317 -13.075   2.628  0.00  0.00    +0.000 A 
ATOM      5  C   UNL     1       2.765 -11.209   1.196  0.00  0.00    +0.000 A 
ATOM      6  C   UNL     1       2.511 -11.974   2.334  0.00  0.00    +0.000 A 
ATOM      7  H   UNL     1       5.001 -14.273   2.000  0.00  0.00    +0.000 HD
ATOM      8  H   UNL     1       2.130 -10.353   0.979  0.00  0.00    +0.000 HD
ATOM      9  H   UNL     1       1.684 -11.699   2.983  0.00  0.00    +0.000 HD
ENDROOT
BRANCH   4  11
ATOM     10  O   UNL     1       3.186 -15.098   3.847  0.00  0.00    +0.000 OA
ATOM     11  C   UNL     1       3.054 -13.871   3.815  0.00  0.00    +0.000 C 
ATOM     12  H   UNL     1       2.723 -13.325   4.715  0.00  0.00    +0.000 HD
ENDBRANCH   4  11
BRANCH   3  13
ATOM     13  O   UNL     1       4.060 -10.790  -0.758  0.00  0.00    +0.000 OA
ATOM     14  H   UNL     1       4.990 -10.506  -0.755  0.00  0.00    +0.000 HD
ENDBRANCH   3  13
BRANCH   1  15
ATOM     15  O   UNL     1       5.663 -12.983  -0.174  0.00  0.00    +0.000 OA
BRANCH  15  16
ATOM     16  C   UNL     1       6.980 -12.712   0.302  0.00  0.00    +0.000 C 
ATOM     17  H   UNL     1       6.987 -12.593   1.393  0.00  0.00    +0.000 HD
ATOM     18  H   UNL     1       7.635 -13.549   0.034  0.00  0.00    +0.000 HD
BRANCH  16  19
ATOM     19  C   UNL     1       7.485 -11.438  -0.340  0.00  0.00    +0.000 C 
ATOM     20  H   UNL     1       6.690 -10.689  -0.401  0.00  0.00    +0.000 HD
ATOM     21  H   UNL     1       8.319 -11.021   0.235  0.00  0.00    +0.000 HD
ATOM     22  H   UNL     1       7.861 -11.638  -1.348  0.00  0.00    +0.000 HD
ENDBRANCH  16  19
ENDBRANCH  15  16
ENDBRANCH   1  15
TORSDOF 5
ENDMDL
MODEL 6
REMARK VINA RESULT:    -4.604      2.045      3.404
REMARK INTER + INTRA:          -5.832
REMARK INTER:                  -5.658
REMARK INTRA:                  -0.174
REMARK UNBOUND:                -0.151
REMARK  Name = 8467
REMARK  5 active torsions:
REMARK  status: ('A' for Active; 'I' for Inactive)
REMARK    1  A    between atoms: O_1  and  C_4
REMARK    2  A    between atoms: O_1  and  C_8
REMARK    3  A    between atoms: O_2  and  C_6
REMARK    4  A    between atoms: C_7  and  C_12
REMARK    5  A    between atoms: C_8  and  C_11
REMARK                            x       y       z     vdW  Elec       q    Type
REMARK                         _______ _______ _______ _____ _____    ______ ____
ROOT
ATOM      1  C   UNL     1     -18.897  -1.752   8.645  0.00  0.00    +0.000 A 
ATOM      2  C   UNL     1     -20.046  -2.185   7.982  0.00  0.00    +0.000 A 
ATOM      3  C   UNL     1     -17.815  -1.260   7.915  0.00  0.00    +0.000 A 
ATOM      4  C   UNL     1     -20.113  -2.125   6.590  0.00  0.00    +0.000 A 
ATOM      5  C   UNL     1     -17.882  -1.201   6.523  0.00  0.00    +0.000 A 
ATOM      6  C   UNL     1     -19.030  -1.634   5.860  0.00  0.00    +0.000 A 
ATOM      7  H   UNL     1     -20.882  -2.575   8.558  0.00  0.00    +0.000 HD
ATOM      8  H   UNL     1     -17.045  -0.820   5.942  0.00  0.00    +0.000 HD
ATOM      9  H   UNL     1     -19.067  -1.581   4.775  0.00  0.00    +0.000 HD
ENDROOT
BRANCH   4  11
ATOM     10  O   UNL     1     -21.323  -2.888   4.706  0.00  0.00    +0.000 OA
ATOM     11  C   UNL     1     -21.310  -2.576   5.900  0.00  0.00    +0.000 C 
ATOM     12  H   UNL     1     -22.236  -2.632   6.499  0.00  0.00    +0.000 HD
ENDBRANCH   4  11
BRANCH   3  13
ATOM     13  O   UNL     1     -16.688  -0.835   8.551  0.00  0.00    +0.000 OA
ATOM     14  H   UNL     1     -16.857   0.038   8.945  0.00  0.00    +0.000 HD
ENDBRANCH   3  13
BRANCH   1  15
ATOM     15  O   UNL     1     -18.844  -1.814  10.005  0.00  0.00    +0.000 OA
BRANCH  15  16
ATOM     16  C   UNL     1     -19.946  -2.428  10.670  0.00  0.00    +0.000 C 
ATOM     17  H   UNL     1     -20.704  -2.760   9.950  0.00  0.00    +0.000 HD
ATOM     18  H   UNL     1     -19.584  -3.299  11.228  0.00  0.00    +0.000 HD
BRANCH  16  19
ATOM     19  C   UNL     1     -20.568  -1.429  11.621  0.00  0.00    +0.000 C 
ATOM     20  H   UNL     1     -21.041  -0.609  11.073  0.00  0.00    +0.000 HD
ATOM     21  H   UNL     1     -21.321  -1.914  12.251  0.00  0.00    +0.000 HD
ATOM     22  H   UNL     1     -19.810  -1.014  12.293  0.00  0.00    +0.000 HD
ENDBRANCH  16  19
ENDBRANCH  15  16
ENDBRANCH   1  15
TORSDOF 5
ENDMDL
MODEL 7
REMARK VINA RESULT:    -4.532      1.915      3.503
REMARK INTER + INTRA:          -5.743
REMARK INTER:                  -5.564
REMARK INTRA:                  -0.178
REMARK UNBOUND:                -0.151
REMARK  Name = 8467
REMARK  5 active torsions:
REMARK  status: ('A' for Active; 'I' for Inactive)
REMARK    1  A    between atoms: O_1  and  C_4
REMARK    2  A    between atoms: O_1  and  C_8
REMARK    3  A    between atoms: O_2  and  C_6
REMARK    4  A    between atoms: C_7  and  C_12
REMARK    5  A    between atoms: C_8  and  C_11
REMARK                            x       y       z     vdW  Elec       q    Type
REMARK                         _______ _______ _______ _____ _____    ______ ____
ROOT
ATOM      1  C   UNL     1     -18.444  -1.851   8.383  0.00  0.00    +0.000 A 
ATOM      2  C   UNL     1     -19.772  -1.425   8.405  0.00  0.00    +0.000 A 
ATOM      3  C   UNL     1     -17.829  -2.279   9.560  0.00  0.00    +0.000 A 
ATOM      4  C   UNL     1     -20.486  -1.428   9.603  0.00  0.00    +0.000 A 
ATOM      5  C   UNL     1     -18.544  -2.282  10.758  0.00  0.00    +0.000 A 
ATOM      6  C   UNL     1     -19.871  -1.856  10.780  0.00  0.00    +0.000 A 
ATOM      7  H   UNL     1     -20.240  -1.083   7.485  0.00  0.00    +0.000 HD
ATOM      8  H   UNL     1     -18.077  -2.614  11.682  0.00  0.00    +0.000 HD
ATOM      9  H   UNL     1     -20.414  -1.864  11.721  0.00  0.00    +0.000 HD
ENDROOT
BRANCH   4  11
ATOM     10  O   UNL     1     -22.346  -0.217   8.784  0.00  0.00    +0.000 OA
ATOM     11  C   UNL     1     -21.870  -0.985   9.625  0.00  0.00    +0.000 C 
ATOM     12  H   UNL     1     -22.500  -1.371  10.445  0.00  0.00    +0.000 HD
ENDBRANCH   4  11
BRANCH   3  13
ATOM     13  O   UNL     1     -16.533  -2.697   9.551  0.00  0.00    +0.000 OA
ATOM     14  H   UNL     1     -16.056  -2.265  10.280  0.00  0.00    +0.000 HD
ENDBRANCH   3  13
BRANCH   1  15
ATOM     15  O   UNL     1     -17.756  -1.844   7.207  0.00  0.00    +0.000 OA
BRANCH  15  16
ATOM     16  C   UNL     1     -18.525  -1.801   6.006  0.00  0.00    +0.000 C 
ATOM     17  H   UNL     1     -19.567  -1.531   6.217  0.00  0.00    +0.000 HD
ATOM     18  H   UNL     1     -18.094  -1.050   5.334  0.00  0.00    +0.000 HD
BRANCH  16  19
ATOM     19  C   UNL     1     -18.488  -3.163   5.348  0.00  0.00    +0.000 C 
ATOM     20  H   UNL     1     -18.665  -3.083   4.271  0.00  0.00    +0.000 HD
ATOM     21  H   UNL     1     -17.517  -3.644   5.511  0.00  0.00    +0.000 HD
ATOM     22  H   UNL     1     -19.246  -3.822   5.783  0.00  0.00    +0.000 HD
ENDBRANCH  16  19
ENDBRANCH  15  16
ENDBRANCH   1  15
TORSDOF 5
ENDMDL
MODEL 8
REMARK VINA RESULT:    -4.488     32.685     34.065
REMARK INTER + INTRA:          -5.688
REMARK INTER:                  -5.528
REMARK INTRA:                  -0.160
REMARK UNBOUND:                -0.151
REMARK  Name = 8467
REMARK  5 active torsions:
REMARK  status: ('A' for Active; 'I' for Inactive)
REMARK    1  A    between atoms: O_1  and  C_4
REMARK    2  A    between atoms: O_1  and  C_8
REMARK    3  A    between atoms: O_2  and  C_6
REMARK    4  A    between atoms: C_7  and  C_12
REMARK    5  A    between atoms: C_8  and  C_11
REMARK                            x       y       z     vdW  Elec       q    Type
REMARK                         _______ _______ _______ _____ _____    ______ ____
ROOT
ATOM      1  C   UNL     1       8.923 -10.148  -9.208  0.00  0.00    +0.000 A 
ATOM      2  C   UNL     1      10.088 -10.100  -8.442  0.00  0.00    +0.000 A 
ATOM      3  C   UNL     1       8.124  -9.012  -9.336  0.00  0.00    +0.000 A 
ATOM      4  C   UNL     1      10.454  -8.915  -7.805  0.00  0.00    +0.000 A 
ATOM      5  C   UNL     1       8.491  -7.827  -8.698  0.00  0.00    +0.000 A 
ATOM      6  C   UNL     1       9.655  -7.778  -7.932  0.00  0.00    +0.000 A 
ATOM      7  H   UNL     1      10.700 -10.993  -8.339  0.00  0.00    +0.000 HD
ATOM      8  H   UNL     1       7.878  -6.934  -8.791  0.00  0.00    +0.000 HD
ATOM      9  H   UNL     1       9.927  -6.847  -7.442  0.00  0.00    +0.000 HD
ENDROOT
BRANCH   4  11
ATOM     10  O   UNL     1      11.684  -8.507  -5.825  0.00  0.00    +0.000 OA
ATOM     11  C   UNL     1      11.668  -8.863  -7.007  0.00  0.00    +0.000 C 
ATOM     12  H   UNL     1      12.604  -9.164  -7.509  0.00  0.00    +0.000 HD
ENDBRANCH   4  11
BRANCH   3  13
ATOM     13  O   UNL     1       6.985  -9.048 -10.081  0.00  0.00    +0.000 OA
ATOM     14  H   UNL     1       6.942  -9.896 -10.555  0.00  0.00    +0.000 HD
ENDBRANCH   3  13
BRANCH   1  15
ATOM     15  O   UNL     1       8.575 -11.312  -9.826  0.00  0.00    +0.000 OA
BRANCH  15  16
ATOM     16  C   UNL     1       9.265 -12.492  -9.422  0.00  0.00    +0.000 C 
ATOM     17  H   UNL     1      10.262 -12.251  -9.034  0.00  0.00    +0.000 HD
ATOM     18  H   UNL     1       8.689 -12.989  -8.633  0.00  0.00    +0.000 HD
BRANCH  16  19
ATOM     19  C   UNL     1       9.406 -13.414 -10.614  0.00  0.00    +0.000 C 
ATOM     20  H   UNL     1       8.753 -14.286 -10.514  0.00  0.00    +0.000 HD
ATOM     21  H   UNL     1       9.152 -12.887 -11.541  0.00  0.00    +0.000 HD
ATOM     22  H   UNL     1      10.440 -13.756 -10.716  0.00  0.00    +0.000 HD
ENDBRANCH  16  19
ENDBRANCH  15  16
ENDBRANCH   1  15
TORSDOF 5
ENDMDL
MODEL 9
REMARK VINA RESULT:    -4.402     26.585     28.694
REMARK INTER + INTRA:          -5.582
REMARK INTER:                  -5.434
REMARK INTRA:                  -0.148
REMARK UNBOUND:                -0.151
REMARK  Name = 8467
REMARK  5 active torsions:
REMARK  status: ('A' for Active; 'I' for Inactive)
REMARK    1  A    between atoms: O_1  and  C_4
REMARK    2  A    between atoms: O_1  and  C_8
REMARK    3  A    between atoms: O_2  and  C_6
REMARK    4  A    between atoms: C_7  and  C_12
REMARK    5  A    between atoms: C_8  and  C_11
REMARK                            x       y       z     vdW  Elec       q    Type
REMARK                         _______ _______ _______ _____ _____    ______ ____
ROOT
ATOM      1  C   UNL     1       6.029 -13.225   0.883  0.00  0.00    +0.000 A 
ATOM      2  C   UNL     1       6.513 -11.940   0.637  0.00  0.00    +0.000 A 
ATOM      3  C   UNL     1       6.646 -14.328   0.294  0.00  0.00    +0.000 A 
ATOM      4  C   UNL     1       7.616 -11.758  -0.198  0.00  0.00    +0.000 A 
ATOM      5  C   UNL     1       7.748 -14.146  -0.541  0.00  0.00    +0.000 A 
ATOM      6  C   UNL     1       8.233 -12.862  -0.788  0.00  0.00    +0.000 A 
ATOM      7  H   UNL     1       6.020 -11.084   1.093  0.00  0.00    +0.000 HD
ATOM      8  H   UNL     1       8.240 -14.997  -1.006  0.00  0.00    +0.000 HD
ATOM      9  H   UNL     1       9.093 -12.737  -1.440  0.00  0.00    +0.000 HD
ENDROOT
BRANCH   4  11
ATOM     10  O   UNL     1       8.555  -9.681   0.435  0.00  0.00    +0.000 OA
ATOM     11  C   UNL     1       8.121 -10.420  -0.454  0.00  0.00    +0.000 C 
ATOM     12  H   UNL     1       8.105 -10.077  -1.502  0.00  0.00    +0.000 HD
ENDBRANCH   4  11
BRANCH   3  13
ATOM     13  O   UNL     1       6.182 -15.587   0.527  0.00  0.00    +0.000 OA
ATOM     14  H   UNL     1       6.024 -15.695   1.481  0.00  0.00    +0.000 HD
ENDBRANCH   3  13
BRANCH   1  15
ATOM     15  O   UNL     1       4.951 -13.390   1.701  0.00  0.00    +0.000 OA
BRANCH  15  16
ATOM     16  C   UNL     1       4.287 -12.208   2.145  0.00  0.00    +0.000 C 
ATOM     17  H   UNL     1       4.951 -11.594   2.765  0.00  0.00    +0.000 HD
ATOM     18  H   UNL     1       3.978 -11.623   1.271  0.00  0.00    +0.000 HD
BRANCH  16  19
ATOM     19  C   UNL     1       3.072 -12.601   2.957  0.00  0.00    +0.000 C 
ATOM     20  H   UNL     1       2.867 -11.863   3.738  0.00  0.00    +0.000 HD
ATOM     21  H   UNL     1       2.190 -12.687   2.313  0.00  0.00    +0.000 HD
ATOM     22  H   UNL     1       3.221 -13.579   3.424  0.00  0.00    +0.000 HD
ENDBRANCH  16  19
ENDBRANCH  15  16
ENDBRANCH   1  15
TORSDOF 5
ENDMDL
MODEL 10
REMARK VINA RESULT:    -4.276     25.997     28.031
REMARK INTER + INTRA:          -5.426
REMARK INTER:                  -5.275
REMARK INTRA:                  -0.151
REMARK UNBOUND:                -0.151
REMARK  Name = 8467
REMARK  5 active torsions:
REMARK  status: ('A' for Active; 'I' for Inactive)
REMARK    1  A    between atoms: O_1  and  C_4
REMARK    2  A    between atoms: O_1  and  C_8
REMARK    3  A    between atoms: O_2  and  C_6
REMARK    4  A    between atoms: C_7  and  C_12
REMARK    5  A    between atoms: C_8  and  C_11
REMARK                            x       y       z     vdW  Elec       q    Type
REMARK                         _______ _______ _______ _____ _____    ______ ____
ROOT
ATOM      1  C   UNL     1       5.288 -12.303   1.072  0.00  0.00    +0.000 A 
ATOM      2  C   UNL     1       6.228 -13.001   1.830  0.00  0.00    +0.000 A 
ATOM      3  C   UNL     1       5.567 -11.974  -0.254  0.00  0.00    +0.000 A 
ATOM      4  C   UNL     1       7.447 -13.371   1.262  0.00  0.00    +0.000 A 
ATOM      5  C   UNL     1       6.786 -12.344  -0.823  0.00  0.00    +0.000 A 
ATOM      6  C   UNL     1       7.726 -13.041  -0.065  0.00  0.00    +0.000 A 
ATOM      7  H   UNL     1       6.006 -13.245   2.867  0.00  0.00    +0.000 HD
ATOM      8  H   UNL     1       7.017 -12.094  -1.856  0.00  0.00    +0.000 HD
ATOM      9  H   UNL     1       8.671 -13.323  -0.522  0.00  0.00    +0.000 HD
ENDROOT
BRANCH   4  11
ATOM     10  O   UNL     1       8.704 -15.286   1.855  0.00  0.00    +0.000 OA
ATOM     11  C   UNL     1       8.426 -14.099   2.052  0.00  0.00    +0.000 C 
ATOM     12  H   UNL     1       8.929 -13.537   2.857  0.00  0.00    +0.000 HD
ENDBRANCH   4  11
BRANCH   3  13
ATOM     13  O   UNL     1       4.657 -11.293  -1.005  0.00  0.00    +0.000 OA
ATOM     14  H   UNL     1       4.166 -10.681  -0.429  0.00  0.00    +0.000 HD
ENDBRANCH   3  13
BRANCH   1  15
ATOM     15  O   UNL     1       4.100 -11.947   1.637  0.00  0.00    +0.000 OA
BRANCH  15  16
ATOM     16  C   UNL     1       3.682 -12.684   2.785  0.00  0.00    +0.000 C 
ATOM     17  H   UNL     1       4.064 -13.711   2.753  0.00  0.00    +0.000 HD
ATOM     18  H   UNL     1       4.068 -12.191   3.685  0.00  0.00    +0.000 HD
BRANCH  16  19
ATOM     19  C   UNL     1       2.170 -12.717   2.825  0.00  0.00    +0.000 C 
ATOM     20  H   UNL     1       1.743 -12.233   1.942  0.00  0.00    +0.000 HD
ATOM     21  H   UNL     1       1.808 -13.750   2.870  0.00  0.00    +0.000 HD
ATOM     22  H   UNL     1       1.798 -12.211   3.721  0.00  0.00    +0.000 HD
ENDBRANCH  16  19
ENDBRANCH  15  16
ENDBRANCH   1  15
TORSDOF 5
ENDMDL
