MODEL 1
REMARK VINA RESULT:    -3.852      0.000      0.000
REMARK INTER + INTRA:          -5.060
REMARK INTER:                  -4.806
REMARK INTRA:                  -0.254
REMARK UNBOUND:                -0.194
REMARK  Name = 7342
REMARK  6 active torsions:
REMARK  status: ('A' for Active; 'I' for Inactive)
REMARK    1  A    between atoms: O_1  and  C_6
REMARK    2  A    between atoms: O_1  and  C_7
REMARK    3  A    between atoms: C_3  and  C_4
REMARK    4  A    between atoms: C_3  and  C_5
REMARK    5  A    between atoms: C_3  and  C_6
REMARK    6  A    between atoms: C_7  and  C_8
REMARK                            x       y       z     vdW  Elec       q    Type
REMARK                         _______ _______ _______ _____ _____    ______ ____
ROOT
ATOM      1  C   UNL     1       2.570  -4.192  14.986  0.00  0.00    +0.000 C 
ATOM      2  H   UNL     1       3.448  -3.951  14.373  0.00  0.00    +0.000 HD
ENDROOT
BRANCH   1   3
ATOM      3  C   UNL     1       1.655  -2.977  15.064  0.00  0.00    +0.000 C 
ATOM      4  H   UNL     1       0.906  -3.099  15.853  0.00  0.00    +0.000 HD
ATOM      5  H   UNL     1       1.131  -2.812  14.116  0.00  0.00    +0.000 HD
ATOM      6  H   UNL     1       2.230  -2.070  15.282  0.00  0.00    +0.000 HD
ENDBRANCH   1   3
BRANCH   1   7
ATOM      7  C   UNL     1       3.073  -4.588  16.373  0.00  0.00    +0.000 C 
ATOM      8  H   UNL     1       4.166  -4.542  16.419  0.00  0.00    +0.000 HD
ATOM      9  H   UNL     1       2.766  -5.609  16.620  0.00  0.00    +0.000 HD
ATOM     10  H   UNL     1       2.673  -3.926  17.148  0.00  0.00    +0.000 HD
ENDBRANCH   1   7
BRANCH   1  12
ATOM     11  O   UNL     1       2.349  -6.168  13.582  0.00  0.00    +0.000 OA
ATOM     12  C   UNL     1       1.836  -5.347  14.330  0.00  0.00    +0.000 C 
BRANCH  12  13
ATOM     13  O   UNL     1       0.524  -5.328  14.713  0.00  0.00    +0.000 OA
BRANCH  13  14
ATOM     14  C   UNL     1       0.049  -6.520  15.348  0.00  0.00    +0.000 C 
ATOM     15  H   UNL     1      -0.677  -7.016  14.694  0.00  0.00    +0.000 HD
ATOM     16  H   UNL     1       0.891  -7.195  15.535  0.00  0.00    +0.000 HD
BRANCH  14  17
ATOM     17  C   UNL     1      -0.612  -6.152  16.658  0.00  0.00    +0.000 C 
ATOM     18  H   UNL     1      -1.440  -6.831  16.884  0.00  0.00    +0.000 HD
ATOM     19  H   UNL     1       0.111  -6.190  17.479  0.00  0.00    +0.000 HD
ATOM     20  H   UNL     1      -0.997  -5.127  16.621  0.00  0.00    +0.000 HD
ENDBRANCH  14  17
ENDBRANCH  13  14
ENDBRANCH  12  13
ENDBRANCH   1  12
TORSDOF 6
ENDMDL
MODEL 2
REMARK VINA RESULT:    -3.813     15.582     16.495
REMARK INTER + INTRA:          -5.010
REMARK INTER:                  -4.854
REMARK INTRA:                  -0.156
REMARK UNBOUND:                -0.194
REMARK  Name = 7342
REMARK  6 active torsions:
REMARK  status: ('A' for Active; 'I' for Inactive)
REMARK    1  A    between atoms: O_1  and  C_6
REMARK    2  A    between atoms: O_1  and  C_7
REMARK    3  A    between atoms: C_3  and  C_4
REMARK    4  A    between atoms: C_3  and  C_5
REMARK    5  A    between atoms: C_3  and  C_6
REMARK    6  A    between atoms: C_7  and  C_8
REMARK                            x       y       z     vdW  Elec       q    Type
REMARK                         _______ _______ _______ _____ _____    ______ ____
ROOT
ATOM      1  C   UNL     1       4.722  -2.663  -1.054  0.00  0.00    +0.000 C 
ATOM      2  H   UNL     1       5.156  -1.679  -0.831  0.00  0.00    +0.000 HD
ENDROOT
BRANCH   1   3
ATOM      3  C   UNL     1       5.087  -3.070  -2.476  0.00  0.00    +0.000 C 
ATOM      4  H   UNL     1       4.801  -2.294  -3.193  0.00  0.00    +0.000 HD
ATOM      5  H   UNL     1       4.589  -4.002  -2.763  0.00  0.00    +0.000 HD
ATOM      6  H   UNL     1       6.167  -3.235  -2.568  0.00  0.00    +0.000 HD
ENDBRANCH   1   3
BRANCH   1   7
ATOM      7  C   UNL     1       3.208  -2.544  -0.891  0.00  0.00    +0.000 C 
ATOM      8  H   UNL     1       2.955  -2.046   0.051  0.00  0.00    +0.000 HD
ATOM      9  H   UNL     1       2.740  -3.534  -0.889  0.00  0.00    +0.000 HD
ATOM     10  H   UNL     1       2.761  -1.969  -1.709  0.00  0.00    +0.000 HD
ENDBRANCH   1   7
BRANCH   1  12
ATOM     11  O   UNL     1       4.674  -4.159   0.865  0.00  0.00    +0.000 OA
ATOM     12  C   UNL     1       5.292  -3.667  -0.070  0.00  0.00    +0.000 C 
BRANCH  12  13
ATOM     13  O   UNL     1       6.591  -3.938  -0.398  0.00  0.00    +0.000 OA
BRANCH  13  14
ATOM     14  C   UNL     1       7.561  -3.618   0.605  0.00  0.00    +0.000 C 
ATOM     15  H   UNL     1       7.157  -3.863   1.594  0.00  0.00    +0.000 HD
ATOM     16  H   UNL     1       8.473  -4.199   0.431  0.00  0.00    +0.000 HD
BRANCH  14  17
ATOM     17  C   UNL     1       7.875  -2.139   0.533  0.00  0.00    +0.000 C 
ATOM     18  H   UNL     1       6.982  -1.561   0.279  0.00  0.00    +0.000 HD
ATOM     19  H   UNL     1       8.267  -1.781   1.490  0.00  0.00    +0.000 HD
ATOM     20  H   UNL     1       8.646  -1.945  -0.220  0.00  0.00    +0.000 HD
ENDBRANCH  14  17
ENDBRANCH  13  14
ENDBRANCH  12  13
ENDBRANCH   1  12
TORSDOF 6
ENDMDL
MODEL 3
REMARK VINA RESULT:    -3.593     15.408     16.686
REMARK INTER + INTRA:          -4.732
REMARK INTER:                  -4.603
REMARK INTRA:                  -0.129
REMARK UNBOUND:                -0.194
REMARK  Name = 7342
REMARK  6 active torsions:
REMARK  status: ('A' for Active; 'I' for Inactive)
REMARK    1  A    between atoms: O_1  and  C_6
REMARK    2  A    between atoms: O_1  and  C_7
REMARK    3  A    between atoms: C_3  and  C_4
REMARK    4  A    between atoms: C_3  and  C_5
REMARK    5  A    between atoms: C_3  and  C_6
REMARK    6  A    between atoms: C_7  and  C_8
REMARK                            x       y       z     vdW  Elec       q    Type
REMARK                         _______ _______ _______ _____ _____    ______ ____
ROOT
ATOM      1  C   UNL     1       4.969  -3.605  -0.326  0.00  0.00    +0.000 C 
ATOM      2  H   UNL     1       4.886  -4.599  -0.783  0.00  0.00    +0.000 HD
ENDROOT
BRANCH   1   3
ATOM      3  C   UNL     1       4.192  -3.580   0.984  0.00  0.00    +0.000 C 
ATOM      4  H   UNL     1       3.222  -4.075   0.876  0.00  0.00    +0.000 HD
ATOM      5  H   UNL     1       4.017  -2.553   1.323  0.00  0.00    +0.000 HD
ATOM      6  H   UNL     1       4.749  -4.094   1.776  0.00  0.00    +0.000 HD
ENDBRANCH   1   3
BRANCH   1   7
ATOM      7  C   UNL     1       4.398  -2.595  -1.320  0.00  0.00    +0.000 C 
ATOM      8  H   UNL     1       4.033  -1.702  -0.801  0.00  0.00    +0.000 HD
ATOM      9  H   UNL     1       3.562  -3.029  -1.877  0.00  0.00    +0.000 HD
ATOM     10  H   UNL     1       5.152  -2.279  -2.049  0.00  0.00    +0.000 HD
ENDBRANCH   1   7
BRANCH   1  12
ATOM     11  O   UNL     1       7.191  -4.072   0.551  0.00  0.00    +0.000 OA
ATOM     12  C   UNL     1       6.436  -3.326  -0.059  0.00  0.00    +0.000 C 
BRANCH  12  13
ATOM     13  O   UNL     1       6.779  -2.124  -0.612  0.00  0.00    +0.000 OA
BRANCH  13  14
ATOM     14  C   UNL     1       7.889  -1.457  -0.001  0.00  0.00    +0.000 C 
ATOM     15  H   UNL     1       7.605  -0.428   0.246  0.00  0.00    +0.000 HD
ATOM     16  H   UNL     1       8.174  -1.986   0.915  0.00  0.00    +0.000 HD
BRANCH  14  17
ATOM     17  C   UNL     1       9.053  -1.449  -0.969  0.00  0.00    +0.000 C 
ATOM     18  H   UNL     1       9.630  -0.525  -0.878  0.00  0.00    +0.000 HD
ATOM     19  H   UNL     1       9.715  -2.300  -0.783  0.00  0.00    +0.000 HD
ATOM     20  H   UNL     1       8.696  -1.542  -2.001  0.00  0.00    +0.000 HD
ENDBRANCH  14  17
ENDBRANCH  13  14
ENDBRANCH  12  13
ENDBRANCH   1  12
TORSDOF 6
ENDMDL
MODEL 4
REMARK VINA RESULT:    -3.458      1.415      3.434
REMARK INTER + INTRA:          -4.561
REMARK INTER:                  -4.474
REMARK INTRA:                  -0.087
REMARK UNBOUND:                -0.194
REMARK  Name = 7342
REMARK  6 active torsions:
REMARK  status: ('A' for Active; 'I' for Inactive)
REMARK    1  A    between atoms: O_1  and  C_6
REMARK    2  A    between atoms: O_1  and  C_7
REMARK    3  A    between atoms: C_3  and  C_4
REMARK    4  A    between atoms: C_3  and  C_5
REMARK    5  A    between atoms: C_3  and  C_6
REMARK    6  A    between atoms: C_7  and  C_8
REMARK                            x       y       z     vdW  Elec       q    Type
REMARK                         _______ _______ _______ _____ _____    ______ ____
ROOT
ATOM      1  C   UNL     1       0.938  -6.181  16.332  0.00  0.00    +0.000 C 
ATOM      2  H   UNL     1       1.445  -5.990  17.287  0.00  0.00    +0.000 HD
ENDROOT
BRANCH   1   3
ATOM      3  C   UNL     1      -0.556  -5.929  16.489  0.00  0.00    +0.000 C 
ATOM      4  H   UNL     1      -0.825  -4.929  16.134  0.00  0.00    +0.000 HD
ATOM      5  H   UNL     1      -0.866  -6.016  17.536  0.00  0.00    +0.000 HD
ATOM      6  H   UNL     1      -1.136  -6.660  15.914  0.00  0.00    +0.000 HD
ENDBRANCH   1   3
BRANCH   1   7
ATOM      7  C   UNL     1       1.210  -7.635  15.952  0.00  0.00    +0.000 C 
ATOM      8  H   UNL     1       0.273  -8.191  15.842  0.00  0.00    +0.000 HD
ATOM      9  H   UNL     1       1.812  -8.131  16.720  0.00  0.00    +0.000 HD
ATOM     10  H   UNL     1       1.759  -7.706  15.006  0.00  0.00    +0.000 HD
ENDBRANCH   1   7
BRANCH   1  12
ATOM     11  O   UNL     1       1.526  -5.448  14.086  0.00  0.00    +0.000 OA
ATOM     12  C   UNL     1       1.512  -5.236  15.292  0.00  0.00    +0.000 C 
BRANCH  12  13
ATOM     13  O   UNL     1       1.998  -4.119  15.911  0.00  0.00    +0.000 OA
BRANCH  13  14
ATOM     14  C   UNL     1       2.053  -2.940  15.102  0.00  0.00    +0.000 C 
ATOM     15  H   UNL     1       1.523  -3.119  14.159  0.00  0.00    +0.000 HD
ATOM     16  H   UNL     1       1.579  -2.108  15.633  0.00  0.00    +0.000 HD
BRANCH  14  17
ATOM     17  C   UNL     1       3.502  -2.604  14.818  0.00  0.00    +0.000 C 
ATOM     18  H   UNL     1       4.172  -3.213  15.431  0.00  0.00    +0.000 HD
ATOM     19  H   UNL     1       3.737  -2.773  13.762  0.00  0.00    +0.000 HD
ATOM     20  H   UNL     1       3.700  -1.547  15.023  0.00  0.00    +0.000 HD
ENDBRANCH  14  17
ENDBRANCH  13  14
ENDBRANCH  12  13
ENDBRANCH   1  12
TORSDOF 6
ENDMDL
MODEL 5
REMARK VINA RESULT:    -3.351     17.230     17.811
REMARK INTER + INTRA:          -4.426
REMARK INTER:                  -4.312
REMARK INTRA:                  -0.114
REMARK UNBOUND:                -0.194
REMARK  Name = 7342
REMARK  6 active torsions:
REMARK  status: ('A' for Active; 'I' for Inactive)
REMARK    1  A    between atoms: O_1  and  C_6
REMARK    2  A    between atoms: O_1  and  C_7
REMARK    3  A    between atoms: C_3  and  C_4
REMARK    4  A    between atoms: C_3  and  C_5
REMARK    5  A    between atoms: C_3  and  C_6
REMARK    6  A    between atoms: C_7  and  C_8
REMARK                            x       y       z     vdW  Elec       q    Type
REMARK                         _______ _______ _______ _____ _____    ______ ____
ROOT
ATOM      1  C   UNL     1       8.645 -11.129  -0.321  0.00  0.00    +0.000 C 
ATOM      2  H   UNL     1       9.406 -11.223   0.464  0.00  0.00    +0.000 HD
ENDROOT
BRANCH   1   3
ATOM      3  C   UNL     1       9.122 -11.838  -1.582  0.00  0.00    +0.000 C 
ATOM      4  H   UNL     1      10.128 -12.248  -1.445  0.00  0.00    +0.000 HD
ATOM      5  H   UNL     1       9.144 -11.155  -2.438  0.00  0.00    +0.000 HD
ATOM      6  H   UNL     1       8.451 -12.665  -1.841  0.00  0.00    +0.000 HD
ENDBRANCH   1   3
BRANCH   1   7
ATOM      7  C   UNL     1       8.432  -9.638  -0.578  0.00  0.00    +0.000 C 
ATOM      8  H   UNL     1       9.358  -9.167  -0.924  0.00  0.00    +0.000 HD
ATOM      9  H   UNL     1       8.113  -9.129   0.336  0.00  0.00    +0.000 HD
ATOM     10  H   UNL     1       7.661  -9.469  -1.338  0.00  0.00    +0.000 HD
ENDBRANCH   1   7
BRANCH   1  12
ATOM     11  O   UNL     1       7.268 -12.425   1.213  0.00  0.00    +0.000 OA
ATOM     12  C   UNL     1       7.366 -11.776   0.179  0.00  0.00    +0.000 C 
BRANCH  12  13
ATOM     13  O   UNL     1       6.351 -11.512  -0.697  0.00  0.00    +0.000 OA
BRANCH  13  14
ATOM     14  C   UNL     1       5.213 -12.376  -0.601  0.00  0.00    +0.000 C 
ATOM     15  H   UNL     1       5.249 -13.117  -1.407  0.00  0.00    +0.000 HD
ATOM     16  H   UNL     1       5.225 -12.891   0.366  0.00  0.00    +0.000 HD
BRANCH  14  17
ATOM     17  C   UNL     1       3.952 -11.548  -0.724  0.00  0.00    +0.000 C 
ATOM     18  H   UNL     1       4.177 -10.546  -1.101  0.00  0.00    +0.000 HD
ATOM     19  H   UNL     1       3.239 -12.029  -1.400  0.00  0.00    +0.000 HD
ATOM     20  H   UNL     1       3.456 -11.455   0.249  0.00  0.00    +0.000 HD
ENDBRANCH  14  17
ENDBRANCH  13  14
ENDBRANCH  12  13
ENDBRANCH   1  12
TORSDOF 6
ENDMDL
MODEL 6
REMARK VINA RESULT:    -3.328     18.489     19.757
REMARK INTER + INTRA:          -4.397
REMARK INTER:                  -4.279
REMARK INTRA:                  -0.118
REMARK UNBOUND:                -0.194
REMARK  Name = 7342
REMARK  6 active torsions:
REMARK  status: ('A' for Active; 'I' for Inactive)
REMARK    1  A    between atoms: O_1  and  C_6
REMARK    2  A    between atoms: O_1  and  C_7
REMARK    3  A    between atoms: C_3  and  C_4
REMARK    4  A    between atoms: C_3  and  C_5
REMARK    5  A    between atoms: C_3  and  C_6
REMARK    6  A    between atoms: C_7  and  C_8
REMARK                            x       y       z     vdW  Elec       q    Type
REMARK                         _______ _______ _______ _____ _____    ______ ____
ROOT
ATOM      1  C   UNL     1     -17.989  -2.084   8.728  0.00  0.00    +0.000 C 
ATOM      2  H   UNL     1     -17.808  -3.094   8.340  0.00  0.00    +0.000 HD
ENDROOT
BRANCH   1   3
ATOM      3  C   UNL     1     -19.418  -1.986   9.248  0.00  0.00    +0.000 C 
ATOM      4  H   UNL     1     -19.879  -1.038   8.954  0.00  0.00    +0.000 HD
ATOM      5  H   UNL     1     -19.449  -2.059  10.340  0.00  0.00    +0.000 HD
ATOM      6  H   UNL     1     -20.034  -2.800   8.848  0.00  0.00    +0.000 HD
ENDBRANCH   1   3
BRANCH   1   7
ATOM      7  C   UNL     1     -17.757  -1.103   7.580  0.00  0.00    +0.000 C 
ATOM      8  H   UNL     1     -18.194  -1.482   6.650  0.00  0.00    +0.000 HD
ATOM      9  H   UNL     1     -16.686  -0.948   7.414  0.00  0.00    +0.000 HD
ATOM     10  H   UNL     1     -18.203  -0.126   7.792  0.00  0.00    +0.000 HD
ENDBRANCH   1   7
BRANCH   1  12
ATOM     11  O   UNL     1     -17.180  -2.177  11.022  0.00  0.00    +0.000 OA
ATOM     12  C   UNL     1     -17.012  -1.827   9.861  0.00  0.00    +0.000 C 
BRANCH  12  13
ATOM     13  O   UNL     1     -15.922  -1.159   9.379  0.00  0.00    +0.000 OA
BRANCH  13  14
ATOM     14  C   UNL     1     -14.799  -1.091  10.263  0.00  0.00    +0.000 C 
ATOM     15  H   UNL     1     -15.084  -1.483  11.246  0.00  0.00    +0.000 HD
ATOM     16  H   UNL     1     -13.977  -1.691   9.857  0.00  0.00    +0.000 HD
BRANCH  14  17
ATOM     17  C   UNL     1     -14.361   0.352  10.396  0.00  0.00    +0.000 C 
ATOM     18  H   UNL     1     -15.220   1.028  10.345  0.00  0.00    +0.000 HD
ATOM     19  H   UNL     1     -13.841   0.511  11.346  0.00  0.00    +0.000 HD
ATOM     20  H   UNL     1     -13.657   0.616   9.599  0.00  0.00    +0.000 HD
ENDBRANCH  14  17
ENDBRANCH  13  14
ENDBRANCH  12  13
ENDBRANCH   1  12
TORSDOF 6
ENDMDL
MODEL 7
REMARK VINA RESULT:    -3.305     14.492     15.627
REMARK INTER + INTRA:          -4.369
REMARK INTER:                  -4.247
REMARK INTRA:                  -0.122
REMARK UNBOUND:                -0.194
REMARK  Name = 7342
REMARK  6 active torsions:
REMARK  status: ('A' for Active; 'I' for Inactive)
REMARK    1  A    between atoms: O_1  and  C_6
REMARK    2  A    between atoms: O_1  and  C_7
REMARK    3  A    between atoms: C_3  and  C_4
REMARK    4  A    between atoms: C_3  and  C_5
REMARK    5  A    between atoms: C_3  and  C_6
REMARK    6  A    between atoms: C_7  and  C_8
REMARK                            x       y       z     vdW  Elec       q    Type
REMARK                         _______ _______ _______ _____ _____    ______ ____
ROOT
ATOM      1  C   UNL     1      -6.542 -13.085   6.227  0.00  0.00    +0.000 C 
ATOM      2  H   UNL     1      -6.500 -12.017   6.475  0.00  0.00    +0.000 HD
ENDROOT
BRANCH   1   3
ATOM      3  C   UNL     1      -7.385 -13.817   7.263  0.00  0.00    +0.000 C 
ATOM      4  H   UNL     1      -8.449 -13.765   7.012  0.00  0.00    +0.000 HD
ATOM      5  H   UNL     1      -7.248 -13.387   8.262  0.00  0.00    +0.000 HD
ATOM      6  H   UNL     1      -7.101 -14.874   7.320  0.00  0.00    +0.000 HD
ENDBRANCH   1   3
BRANCH   1   7
ATOM      7  C   UNL     1      -5.107 -13.610   6.219  0.00  0.00    +0.000 C 
ATOM      8  H   UNL     1      -4.458 -12.978   6.833  0.00  0.00    +0.000 HD
ATOM      9  H   UNL     1      -4.705 -13.623   5.202  0.00  0.00    +0.000 HD
ATOM     10  H   UNL     1      -5.053 -14.633   6.609  0.00  0.00    +0.000 HD
ENDBRANCH   1   7
BRANCH   1  12
ATOM     11  O   UNL     1      -8.374 -13.369   4.649  0.00  0.00    +0.000 OA
ATOM     12  C   UNL     1      -7.175 -13.230   4.855  0.00  0.00    +0.000 C 
BRANCH  12  13
ATOM     13  O   UNL     1      -6.202 -13.171   3.897  0.00  0.00    +0.000 OA
BRANCH  13  14
ATOM     14  C   UNL     1      -6.496 -12.336   2.771  0.00  0.00    +0.000 C 
ATOM     15  H   UNL     1      -7.088 -12.902   2.043  0.00  0.00    +0.000 HD
ATOM     16  H   UNL     1      -7.065 -11.461   3.102  0.00  0.00    +0.000 HD
BRANCH  14  17
ATOM     17  C   UNL     1      -5.196 -11.890   2.136  0.00  0.00    +0.000 C 
ATOM     18  H   UNL     1      -4.411 -12.637   2.284  0.00  0.00    +0.000 HD
ATOM     19  H   UNL     1      -5.329 -11.724   1.062  0.00  0.00    +0.000 HD
ATOM     20  H   UNL     1      -4.864 -10.939   2.567  0.00  0.00    +0.000 HD
ENDBRANCH  14  17
ENDBRANCH  13  14
ENDBRANCH  12  13
ENDBRANCH   1  12
TORSDOF 6
ENDMDL
MODEL 8
REMARK VINA RESULT:    -3.270     18.731     20.106
REMARK INTER + INTRA:          -4.325
REMARK INTER:                  -4.201
REMARK INTRA:                  -0.123
REMARK UNBOUND:                -0.194
REMARK  Name = 7342
REMARK  6 active torsions:
REMARK  status: ('A' for Active; 'I' for Inactive)
REMARK    1  A    between atoms: O_1  and  C_6
REMARK    2  A    between atoms: O_1  and  C_7
REMARK    3  A    between atoms: C_3  and  C_4
REMARK    4  A    between atoms: C_3  and  C_5
REMARK    5  A    between atoms: C_3  and  C_6
REMARK    6  A    between atoms: C_7  and  C_8
REMARK                            x       y       z     vdW  Elec       q    Type
REMARK                         _______ _______ _______ _____ _____    ______ ____
ROOT
ATOM      1  C   UNL     1       9.529 -10.455  -0.684  0.00  0.00    +0.000 C 
ATOM      2  H   UNL     1       9.849 -10.801   0.307  0.00  0.00    +0.000 HD
ENDROOT
BRANCH   1   3
ATOM      3  C   UNL     1       8.261  -9.620  -0.546  0.00  0.00    +0.000 C 
ATOM      4  H   UNL     1       8.499  -8.554  -0.481  0.00  0.00    +0.000 HD
ATOM      5  H   UNL     1       7.695  -9.901   0.349  0.00  0.00    +0.000 HD
ATOM      6  H   UNL     1       7.603  -9.768  -1.409  0.00  0.00    +0.000 HD
ENDBRANCH   1   3
BRANCH   1   7
ATOM      7  C   UNL     1       9.278 -11.691  -1.544  0.00  0.00    +0.000 C 
ATOM      8  H   UNL     1       8.298 -12.127  -1.324  0.00  0.00    +0.000 HD
ATOM      9  H   UNL     1      10.040 -12.455  -1.356  0.00  0.00    +0.000 HD
ATOM     10  H   UNL     1       9.309 -11.449  -2.612  0.00  0.00    +0.000 HD
ENDBRANCH   1   7
BRANCH   1  12
ATOM     11  O   UNL     1      10.917  -8.468  -0.914  0.00  0.00    +0.000 OA
ATOM     12  C   UNL     1      10.641  -9.606  -1.272  0.00  0.00    +0.000 C 
BRANCH  12  13
ATOM     13  O   UNL     1      11.284 -10.313  -2.248  0.00  0.00    +0.000 OA
BRANCH  13  14
ATOM     14  C   UNL     1      11.917  -9.527  -3.264  0.00  0.00    +0.000 C 
ATOM     15  H   UNL     1      11.491  -9.781  -4.241  0.00  0.00    +0.000 HD
ATOM     16  H   UNL     1      11.751  -8.464  -3.060  0.00  0.00    +0.000 HD
BRANCH  14  17
ATOM     17  C   UNL     1      13.402  -9.822  -3.262  0.00  0.00    +0.000 C 
ATOM     18  H   UNL     1      13.591 -10.877  -3.048  0.00  0.00    +0.000 HD
ATOM     19  H   UNL     1      13.846  -9.572  -4.231  0.00  0.00    +0.000 HD
ATOM     20  H   UNL     1      13.915  -9.212  -2.510  0.00  0.00    +0.000 HD
ENDBRANCH  14  17
ENDBRANCH  13  14
ENDBRANCH  12  13
ENDBRANCH   1  12
TORSDOF 6
ENDMDL
MODEL 9
REMARK VINA RESULT:    -3.184     16.945     18.064
REMARK INTER + INTRA:          -4.216
REMARK INTER:                  -4.125
REMARK INTRA:                  -0.090
REMARK UNBOUND:                -0.194
REMARK  Name = 7342
REMARK  6 active torsions:
REMARK  status: ('A' for Active; 'I' for Inactive)
REMARK    1  A    between atoms: O_1  and  C_6
REMARK    2  A    between atoms: O_1  and  C_7
REMARK    3  A    between atoms: C_3  and  C_4
REMARK    4  A    between atoms: C_3  and  C_5
REMARK    5  A    between atoms: C_3  and  C_6
REMARK    6  A    between atoms: C_7  and  C_8
REMARK                            x       y       z     vdW  Elec       q    Type
REMARK                         _______ _______ _______ _____ _____    ______ ____
ROOT
ATOM      1  C   UNL     1       9.574 -10.234  -0.629  0.00  0.00    +0.000 C 
ATOM      2  H   UNL     1      10.072 -10.342   0.343  0.00  0.00    +0.000 HD
ENDROOT
BRANCH   1   3
ATOM      3  C   UNL     1      10.614 -10.267  -1.741  0.00  0.00    +0.000 C 
ATOM      4  H   UNL     1      11.158  -9.319  -1.798  0.00  0.00    +0.000 HD
ATOM      5  H   UNL     1      10.149 -10.454  -2.715  0.00  0.00    +0.000 HD
ATOM      6  H   UNL     1      11.344 -11.066  -1.568  0.00  0.00    +0.000 HD
ENDBRANCH   1   3
BRANCH   1   7
ATOM      7  C   UNL     1       8.828  -8.901  -0.617  0.00  0.00    +0.000 C 
ATOM      8  H   UNL     1       9.081  -8.305  -1.500  0.00  0.00    +0.000 HD
ATOM      9  H   UNL     1       9.091  -8.318   0.272  0.00  0.00    +0.000 HD
ATOM     10  H   UNL     1       7.743  -9.049  -0.606  0.00  0.00    +0.000 HD
ENDBRANCH   1   7
BRANCH   1  12
ATOM     11  O   UNL     1       8.774 -12.340  -1.552  0.00  0.00    +0.000 OA
ATOM     12  C   UNL     1       8.605 -11.390  -0.798  0.00  0.00    +0.000 C 
BRANCH  12  13
ATOM     13  O   UNL     1       7.531 -11.207   0.027  0.00  0.00    +0.000 OA
BRANCH  13  14
ATOM     14  C   UNL     1       6.886 -12.405   0.475  0.00  0.00    +0.000 C 
ATOM     15  H   UNL     1       6.089 -12.674  -0.228  0.00  0.00    +0.000 HD
ATOM     16  H   UNL     1       7.618 -13.218   0.524  0.00  0.00    +0.000 HD
BRANCH  14  17
ATOM     17  C   UNL     1       6.297 -12.164   1.848  0.00  0.00    +0.000 C 
ATOM     18  H   UNL     1       5.208 -12.083   1.798  0.00  0.00    +0.000 HD
ATOM     19  H   UNL     1       6.561 -12.979   2.529  0.00  0.00    +0.000 HD
ATOM     20  H   UNL     1       6.699 -11.242   2.283  0.00  0.00    +0.000 HD
ENDBRANCH  14  17
ENDBRANCH  13  14
ENDBRANCH  12  13
ENDBRANCH   1  12
TORSDOF 6
ENDMDL
MODEL 10
REMARK VINA RESULT:    -2.949     17.728     18.684
REMARK INTER + INTRA:          -3.919
REMARK INTER:                  -3.725
REMARK INTRA:                  -0.194
REMARK UNBOUND:                -0.194
REMARK  Name = 7342
REMARK  6 active torsions:
REMARK  status: ('A' for Active; 'I' for Inactive)
REMARK    1  A    between atoms: O_1  and  C_6
REMARK    2  A    between atoms: O_1  and  C_7
REMARK    3  A    between atoms: C_3  and  C_4
REMARK    4  A    between atoms: C_3  and  C_5
REMARK    5  A    between atoms: C_3  and  C_6
REMARK    6  A    between atoms: C_7  and  C_8
REMARK                            x       y       z     vdW  Elec       q    Type
REMARK                         _______ _______ _______ _____ _____    ______ ____
ROOT
ATOM      1  C   UNL     1     -13.530 -15.344   8.856  0.00  0.00    +0.000 C 
ATOM      2  H   UNL     1     -13.961 -16.274   9.247  0.00  0.00    +0.000 HD
ENDROOT
BRANCH   1   3
ATOM      3  C   UNL     1     -13.632 -14.252   9.913  0.00  0.00    +0.000 C 
ATOM      4  H   UNL     1     -14.525 -13.638   9.759  0.00  0.00    +0.000 HD
ATOM      5  H   UNL     1     -12.756 -13.594   9.890  0.00  0.00    +0.000 HD
ATOM      6  H   UNL     1     -13.688 -14.686  10.917  0.00  0.00    +0.000 HD
ENDBRANCH   1   3
BRANCH   1   7
ATOM      7  C   UNL     1     -14.316 -14.966   7.602  0.00  0.00    +0.000 C 
ATOM      8  H   UNL     1     -14.863 -15.830   7.210  0.00  0.00    +0.000 HD
ATOM      9  H   UNL     1     -13.644 -14.605   6.817  0.00  0.00    +0.000 HD
ATOM     10  H   UNL     1     -15.040 -14.170   7.807  0.00  0.00    +0.000 HD
ENDBRANCH   1   7
BRANCH   1  12
ATOM     11  O   UNL     1     -11.441 -16.594   8.857  0.00  0.00    +0.000 OA
ATOM     12  C   UNL     1     -12.072 -15.600   8.521  0.00  0.00    +0.000 C 
BRANCH  12  13
ATOM     13  O   UNL     1     -11.586 -14.559   7.782  0.00  0.00    +0.000 OA
BRANCH  13  14
ATOM     14  C   UNL     1     -10.609 -14.906   6.795  0.00  0.00    +0.000 C 
ATOM     15  H   UNL     1      -9.676 -14.369   7.001  0.00  0.00    +0.000 HD
ATOM     16  H   UNL     1     -10.423 -15.985   6.828  0.00  0.00    +0.000 HD
BRANCH  14  17
ATOM     17  C   UNL     1     -11.129 -14.519   5.427  0.00  0.00    +0.000 C 
ATOM     18  H   UNL     1     -11.913 -15.207   5.097  0.00  0.00    +0.000 HD
ATOM     19  H   UNL     1     -11.534 -13.502   5.442  0.00  0.00    +0.000 HD
ATOM     20  H   UNL     1     -10.319 -14.528   4.690  0.00  0.00    +0.000 HD
ENDBRANCH  14  17
ENDBRANCH  13  14
ENDBRANCH  12  13
ENDBRANCH   1  12
TORSDOF 6
ENDMDL
