MODEL 1
REMARK VINA RESULT:    -4.071      0.000      0.000
REMARK INTER + INTRA:          -6.266
REMARK INTER:                  -5.931
REMARK INTRA:                  -0.335
REMARK UNBOUND:                -0.529
REMARK  Name = 31265
REMARK  8 active torsions:
REMARK  status: ('A' for Active; 'I' for Inactive)
REMARK    1  A    between atoms: O_1  and  C_8
REMARK    2  A    between atoms: O_1  and  C_9
REMARK    3  A    between atoms: C_3  and  C_4
REMARK    4  A    between atoms: C_3  and  C_5
REMARK    5  A    between atoms: C_4  and  C_6
REMARK    6  A    between atoms: C_5  and  C_7
REMARK    7  A    between atoms: C_6  and  C_8
REMARK    8  A    between atoms: C_9  and  C_10
REMARK                            x       y       z     vdW  Elec       q    Type
REMARK                         _______ _______ _______ _____ _____    ______ ____
ROOT
ATOM      1  C   UNL     1       5.116  -3.270  -2.245  0.00  0.00    +0.000 C 
ATOM      2  H   UNL     1       4.974  -4.263  -1.800  0.00  0.00    +0.000 HD
ATOM      3  H   UNL     1       4.686  -3.317  -3.253  0.00  0.00    +0.000 HD
ENDROOT
BRANCH   1   4
ATOM      4  C   UNL     1       4.362  -2.224  -1.418  0.00  0.00    +0.000 C 
ATOM      5  H   UNL     1       3.844  -1.527  -2.088  0.00  0.00    +0.000 HD
ATOM      6  H   UNL     1       5.080  -1.637  -0.831  0.00  0.00    +0.000 HD
BRANCH   4   7
ATOM      7  C   UNL     1       3.353  -2.885  -0.478  0.00  0.00    +0.000 C 
ATOM      8  H   UNL     1       2.667  -2.130  -0.079  0.00  0.00    +0.000 HD
ATOM      9  H   UNL     1       2.749  -3.613  -1.031  0.00  0.00    +0.000 HD
BRANCH   7  10
ATOM     10  C   UNL     1       4.047  -3.591   0.676  0.00  0.00    +0.000 C 
ATOM     11  H   UNL     1       3.451  -3.522   1.592  0.00  0.00    +0.000 HD
ATOM     12  H   UNL     1       4.207  -4.650   0.449  0.00  0.00    +0.000 HD
ATOM     13  H   UNL     1       5.022  -3.133   0.870  0.00  0.00    +0.000 HD
ENDBRANCH   7  10
ENDBRANCH   4   7
ENDBRANCH   1   4
BRANCH   1  14
ATOM     14  C   UNL     1       6.611  -2.970  -2.343  0.00  0.00    +0.000 C 
ATOM     15  H   UNL     1       7.022  -3.442  -3.243  0.00  0.00    +0.000 HD
ATOM     16  H   UNL     1       6.758  -1.886  -2.414  0.00  0.00    +0.000 HD
BRANCH  14  18
ATOM     17  O   UNL     1       7.263  -4.570  -0.631  0.00  0.00    +0.000 OA
ATOM     18  C   UNL     1       7.400  -3.473  -1.155  0.00  0.00    +0.000 C 
BRANCH  18  19
ATOM     19  O   UNL     1       8.260  -2.493  -0.746  0.00  0.00    +0.000 OA
BRANCH  19  20
ATOM     20  C   UNL     1       9.518  -2.453  -1.426  0.00  0.00    +0.000 C 
ATOM     21  H   UNL     1      10.299  -2.861  -0.775  0.00  0.00    +0.000 HD
ATOM     22  H   UNL     1       9.459  -3.053  -2.341  0.00  0.00    +0.000 HD
BRANCH  20  23
ATOM     23  C   UNL     1       9.844  -1.017  -1.777  0.00  0.00    +0.000 C 
ATOM     24  H   UNL     1       9.220  -0.665  -2.602  0.00  0.00    +0.000 HD
ATOM     25  H   UNL     1       9.686  -0.364  -0.912  0.00  0.00    +0.000 HD
ATOM     26  H   UNL     1      10.897  -0.918  -2.061  0.00  0.00    +0.000 HD
ENDBRANCH  20  23
ENDBRANCH  19  20
ENDBRANCH  18  19
ENDBRANCH  14  18
ENDBRANCH   1  14
TORSDOF 8
ENDMDL
MODEL 2
REMARK VINA RESULT:    -3.954     16.429     17.854
REMARK INTER + INTRA:          -6.102
REMARK INTER:                  -5.971
REMARK INTRA:                  -0.131
REMARK UNBOUND:                -0.529
REMARK  Name = 31265
REMARK  8 active torsions:
REMARK  status: ('A' for Active; 'I' for Inactive)
REMARK    1  A    between atoms: O_1  and  C_8
REMARK    2  A    between atoms: O_1  and  C_9
REMARK    3  A    between atoms: C_3  and  C_4
REMARK    4  A    between atoms: C_3  and  C_5
REMARK    5  A    between atoms: C_4  and  C_6
REMARK    6  A    between atoms: C_5  and  C_7
REMARK    7  A    between atoms: C_6  and  C_8
REMARK    8  A    between atoms: C_9  and  C_10
REMARK                            x       y       z     vdW  Elec       q    Type
REMARK                         _______ _______ _______ _____ _____    ______ ____
ROOT
ATOM      1  C   UNL     1       0.850  -4.586  15.176  0.00  0.00    +0.000 C 
ATOM      2  H   UNL     1       0.139  -3.930  14.660  0.00  0.00    +0.000 HD
ATOM      3  H   UNL     1       1.230  -5.288  14.423  0.00  0.00    +0.000 HD
ENDROOT
BRANCH   1   4
ATOM      4  C   UNL     1       2.012  -3.754  15.729  0.00  0.00    +0.000 C 
ATOM      5  H   UNL     1       2.875  -4.403  15.916  0.00  0.00    +0.000 HD
ATOM      6  H   UNL     1       1.720  -3.316  16.691  0.00  0.00    +0.000 HD
BRANCH   4   7
ATOM      7  C   UNL     1       2.403  -2.640  14.757  0.00  0.00    +0.000 C 
ATOM      8  H   UNL     1       1.943  -2.821  13.779  0.00  0.00    +0.000 HD
ATOM      9  H   UNL     1       2.027  -1.677  15.121  0.00  0.00    +0.000 HD
BRANCH   7  10
ATOM     10  C   UNL     1       3.912  -2.551  14.591  0.00  0.00    +0.000 C 
ATOM     11  H   UNL     1       4.419  -2.641  15.558  0.00  0.00    +0.000 HD
ATOM     12  H   UNL     1       4.282  -3.344  13.935  0.00  0.00    +0.000 HD
ATOM     13  H   UNL     1       4.189  -1.588  14.151  0.00  0.00    +0.000 HD
ENDBRANCH   7  10
ENDBRANCH   4   7
ENDBRANCH   1   4
BRANCH   1  14
ATOM     14  C   UNL     1       0.116  -5.363  16.270  0.00  0.00    +0.000 C 
ATOM     15  H   UNL     1       0.617  -5.205  17.231  0.00  0.00    +0.000 HD
ATOM     16  H   UNL     1      -0.914  -4.996  16.343  0.00  0.00    +0.000 HD
BRANCH  14  18
ATOM     17  O   UNL     1      -0.437  -7.680  16.758  0.00  0.00    +0.000 OA
ATOM     18  C   UNL     1       0.067  -6.852  16.012  0.00  0.00    +0.000 C 
BRANCH  18  19
ATOM     19  O   UNL     1       0.702  -7.121  14.833  0.00  0.00    +0.000 OA
BRANCH  19  20
ATOM     20  C   UNL     1       1.963  -7.787  14.949  0.00  0.00    +0.000 C 
ATOM     21  H   UNL     1       2.592  -7.256  15.673  0.00  0.00    +0.000 HD
ATOM     22  H   UNL     1       1.803  -8.815  15.292  0.00  0.00    +0.000 HD
BRANCH  20  23
ATOM     23  C   UNL     1       2.641  -7.800  13.596  0.00  0.00    +0.000 C 
ATOM     24  H   UNL     1       1.912  -7.672  12.792  0.00  0.00    +0.000 HD
ATOM     25  H   UNL     1       3.384  -6.998  13.530  0.00  0.00    +0.000 HD
ATOM     26  H   UNL     1       3.177  -8.743  13.441  0.00  0.00    +0.000 HD
ENDBRANCH  20  23
ENDBRANCH  19  20
ENDBRANCH  18  19
ENDBRANCH  14  18
ENDBRANCH   1  14
TORSDOF 8
ENDMDL
MODEL 3
REMARK VINA RESULT:    -3.757     17.205     19.572
REMARK INTER + INTRA:          -5.823
REMARK INTER:                  -5.580
REMARK INTRA:                  -0.243
REMARK UNBOUND:                -0.529
REMARK  Name = 31265
REMARK  8 active torsions:
REMARK  status: ('A' for Active; 'I' for Inactive)
REMARK    1  A    between atoms: O_1  and  C_8
REMARK    2  A    between atoms: O_1  and  C_9
REMARK    3  A    between atoms: C_3  and  C_4
REMARK    4  A    between atoms: C_3  and  C_5
REMARK    5  A    between atoms: C_4  and  C_6
REMARK    6  A    between atoms: C_5  and  C_7
REMARK    7  A    between atoms: C_6  and  C_8
REMARK    8  A    between atoms: C_9  and  C_10
REMARK                            x       y       z     vdW  Elec       q    Type
REMARK                         _______ _______ _______ _____ _____    ______ ____
ROOT
ATOM      1  C   UNL     1       0.096  -5.284  16.295  0.00  0.00    +0.000 C 
ATOM      2  H   UNL     1       0.712  -5.405  17.194  0.00  0.00    +0.000 HD
ATOM      3  H   UNL     1      -0.659  -4.525  16.535  0.00  0.00    +0.000 HD
ENDROOT
BRANCH   1   4
ATOM      4  C   UNL     1       0.967  -4.789  15.137  0.00  0.00    +0.000 C 
ATOM      5  H   UNL     1       0.347  -4.244  14.414  0.00  0.00    +0.000 HD
ATOM      6  H   UNL     1       1.398  -5.650  14.610  0.00  0.00    +0.000 HD
BRANCH   4   7
ATOM      7  C   UNL     1       2.091  -3.882  15.639  0.00  0.00    +0.000 C 
ATOM      8  H   UNL     1       1.915  -3.619  16.689  0.00  0.00    +0.000 HD
ATOM      9  H   UNL     1       3.049  -4.413  15.593  0.00  0.00    +0.000 HD
BRANCH   7  10
ATOM     10  C   UNL     1       2.190  -2.609  14.815  0.00  0.00    +0.000 C 
ATOM     11  H   UNL     1       2.448  -1.752  15.446  0.00  0.00    +0.000 HD
ATOM     12  H   UNL     1       2.954  -2.704  14.036  0.00  0.00    +0.000 HD
ATOM     13  H   UNL     1       1.233  -2.396  14.328  0.00  0.00    +0.000 HD
ENDBRANCH   7  10
ENDBRANCH   4   7
ENDBRANCH   1   4
BRANCH   1  14
ATOM     14  C   UNL     1      -0.599  -6.609  15.978  0.00  0.00    +0.000 C 
ATOM     15  H   UNL     1      -1.596  -6.618  16.432  0.00  0.00    +0.000 HD
ATOM     16  H   UNL     1      -0.704  -6.711  14.892  0.00  0.00    +0.000 HD
BRANCH  14  18
ATOM     17  O   UNL     1       1.249  -8.185  16.089  0.00  0.00    +0.000 OA
ATOM     18  C   UNL     1       0.155  -7.815  16.491  0.00  0.00    +0.000 C 
BRANCH  18  19
ATOM     19  O   UNL     1      -0.598  -8.436  17.447  0.00  0.00    +0.000 OA
BRANCH  19  20
ATOM     20  C   UNL     1       0.128  -8.942  18.572  0.00  0.00    +0.000 C 
ATOM     21  H   UNL     1      -0.227  -9.950  18.813  0.00  0.00    +0.000 HD
ATOM     22  H   UNL     1       1.196  -8.981  18.331  0.00  0.00    +0.000 HD
BRANCH  20  23
ATOM     23  C   UNL     1      -0.095  -8.026  19.756  0.00  0.00    +0.000 C 
ATOM     24  H   UNL     1       0.521  -7.126  19.676  0.00  0.00    +0.000 HD
ATOM     25  H   UNL     1      -1.147  -7.728  19.820  0.00  0.00    +0.000 HD
ATOM     26  H   UNL     1       0.148  -8.538  20.692  0.00  0.00    +0.000 HD
ENDBRANCH  20  23
ENDBRANCH  19  20
ENDBRANCH  18  19
ENDBRANCH  14  18
ENDBRANCH   1  14
TORSDOF 8
ENDMDL
MODEL 4
REMARK VINA RESULT:    -3.746      7.493      9.355
REMARK INTER + INTRA:          -5.808
REMARK INTER:                  -5.580
REMARK INTRA:                  -0.228
REMARK UNBOUND:                -0.529
REMARK  Name = 31265
REMARK  8 active torsions:
REMARK  status: ('A' for Active; 'I' for Inactive)
REMARK    1  A    between atoms: O_1  and  C_8
REMARK    2  A    between atoms: O_1  and  C_9
REMARK    3  A    between atoms: C_3  and  C_4
REMARK    4  A    between atoms: C_3  and  C_5
REMARK    5  A    between atoms: C_4  and  C_6
REMARK    6  A    between atoms: C_5  and  C_7
REMARK    7  A    between atoms: C_6  and  C_8
REMARK    8  A    between atoms: C_9  and  C_10
REMARK                            x       y       z     vdW  Elec       q    Type
REMARK                         _______ _______ _______ _____ _____    ______ ____
ROOT
ATOM      1  C   UNL     1      10.990  -8.928  -1.542  0.00  0.00    +0.000 C 
ATOM      2  H   UNL     1      11.613  -8.465  -0.768  0.00  0.00    +0.000 HD
ATOM      3  H   UNL     1      10.357  -8.130  -1.951  0.00  0.00    +0.000 HD
ENDROOT
BRANCH   1   4
ATOM      4  C   UNL     1      11.881  -9.491  -2.653  0.00  0.00    +0.000 C 
ATOM      5  H   UNL     1      12.915  -9.569  -2.294  0.00  0.00    +0.000 HD
ATOM      6  H   UNL     1      11.885  -8.798  -3.504  0.00  0.00    +0.000 HD
BRANCH   4   7
ATOM      7  C   UNL     1      11.390 -10.864  -3.113  0.00  0.00    +0.000 C 
ATOM      8  H   UNL     1      11.776 -11.641  -2.444  0.00  0.00    +0.000 HD
ATOM      9  H   UNL     1      10.296 -10.905  -3.063  0.00  0.00    +0.000 HD
BRANCH   7  10
ATOM     10  C   UNL     1      11.832 -11.165  -4.537  0.00  0.00    +0.000 C 
ATOM     11  H   UNL     1      11.288 -12.025  -4.943  0.00  0.00    +0.000 HD
ATOM     12  H   UNL     1      11.656 -10.307  -5.193  0.00  0.00    +0.000 HD
ATOM     13  H   UNL     1      12.901 -11.398  -4.561  0.00  0.00    +0.000 HD
ENDBRANCH   7  10
ENDBRANCH   4   7
ENDBRANCH   1   4
BRANCH   1  14
ATOM     14  C   UNL     1      10.106 -10.000  -0.903  0.00  0.00    +0.000 C 
ATOM     15  H   UNL     1       9.911 -10.796  -1.630  0.00  0.00    +0.000 HD
ATOM     16  H   UNL     1      10.627 -10.429  -0.040  0.00  0.00    +0.000 HD
BRANCH  14  18
ATOM     17  O   UNL     1       8.392  -8.312  -0.549  0.00  0.00    +0.000 OA
ATOM     18  C   UNL     1       8.772  -9.468  -0.429  0.00  0.00    +0.000 C 
BRANCH  18  19
ATOM     19  O   UNL     1       8.083 -10.477   0.181  0.00  0.00    +0.000 OA
BRANCH  19  20
ATOM     20  C   UNL     1       7.820 -11.625  -0.632  0.00  0.00    +0.000 C 
ATOM     21  H   UNL     1       6.770 -11.619  -0.944  0.00  0.00    +0.000 HD
ATOM     22  H   UNL     1       8.462 -11.599  -1.519  0.00  0.00    +0.000 HD
BRANCH  20  23
ATOM     23  C   UNL     1       8.107 -12.875   0.171  0.00  0.00    +0.000 C 
ATOM     24  H   UNL     1       7.954 -13.772  -0.434  0.00  0.00    +0.000 HD
ATOM     25  H   UNL     1       9.139 -12.869   0.539  0.00  0.00    +0.000 HD
ATOM     26  H   UNL     1       7.457 -12.927   1.051  0.00  0.00    +0.000 HD
ENDBRANCH  20  23
ENDBRANCH  19  20
ENDBRANCH  18  19
ENDBRANCH  14  18
ENDBRANCH   1  14
TORSDOF 8
ENDMDL
MODEL 5
REMARK VINA RESULT:    -3.544     19.696     21.140
REMARK INTER + INTRA:          -5.524
REMARK INTER:                  -5.270
REMARK INTRA:                  -0.254
REMARK UNBOUND:                -0.529
REMARK  Name = 31265
REMARK  8 active torsions:
REMARK  status: ('A' for Active; 'I' for Inactive)
REMARK    1  A    between atoms: O_1  and  C_8
REMARK    2  A    between atoms: O_1  and  C_9
REMARK    3  A    between atoms: C_3  and  C_4
REMARK    4  A    between atoms: C_3  and  C_5
REMARK    5  A    between atoms: C_4  and  C_6
REMARK    6  A    between atoms: C_5  and  C_7
REMARK    7  A    between atoms: C_6  and  C_8
REMARK    8  A    between atoms: C_9  and  C_10
REMARK                            x       y       z     vdW  Elec       q    Type
REMARK                         _______ _______ _______ _____ _____    ______ ____
ROOT
ATOM      1  C   UNL     1      -1.016  11.769  11.352  0.00  0.00    +0.000 C 
ATOM      2  H   UNL     1      -1.327  12.390  12.201  0.00  0.00    +0.000 HD
ATOM      3  H   UNL     1      -1.398  12.264  10.450  0.00  0.00    +0.000 HD
ENDROOT
BRANCH   1   4
ATOM      4  C   UNL     1       0.513  11.708  11.291  0.00  0.00    +0.000 C 
ATOM      5  H   UNL     1       0.940  12.472  11.953  0.00  0.00    +0.000 HD
ATOM      6  H   UNL     1       0.847  11.939  10.272  0.00  0.00    +0.000 HD
BRANCH   4   7
ATOM      7  C   UNL     1       1.027  10.327  11.698  0.00  0.00    +0.000 C 
ATOM      8  H   UNL     1       0.696  10.092  12.716  0.00  0.00    +0.000 HD
ATOM      9  H   UNL     1       0.607   9.561  11.035  0.00  0.00    +0.000 HD
BRANCH   7  10
ATOM     10  C   UNL     1       2.544  10.256  11.636  0.00  0.00    +0.000 C 
ATOM     11  H   UNL     1       2.883   9.963  10.637  0.00  0.00    +0.000 HD
ATOM     12  H   UNL     1       2.993  11.225  11.881  0.00  0.00    +0.000 HD
ATOM     13  H   UNL     1       2.919   9.518  12.352  0.00  0.00    +0.000 HD
ENDBRANCH   7  10
ENDBRANCH   4   7
ENDBRANCH   1   4
BRANCH   1  14
ATOM     14  C   UNL     1      -1.652  10.385  11.479  0.00  0.00    +0.000 C 
ATOM     15  H   UNL     1      -1.391   9.779  10.604  0.00  0.00    +0.000 HD
ATOM     16  H   UNL     1      -1.264   9.891  12.378  0.00  0.00    +0.000 HD
BRANCH  14  18
ATOM     17  O   UNL     1      -3.899  11.060  10.840  0.00  0.00    +0.000 OA
ATOM     18  C   UNL     1      -3.160  10.428  11.581  0.00  0.00    +0.000 C 
BRANCH  18  19
ATOM     19  O   UNL     1      -3.554   9.676  12.652  0.00  0.00    +0.000 OA
BRANCH  19  20
ATOM     20  C   UNL     1      -3.813  10.405  13.856  0.00  0.00    +0.000 C 
ATOM     21  H   UNL     1      -3.785  11.480  13.645  0.00  0.00    +0.000 HD
ATOM     22  H   UNL     1      -4.803  10.136  14.240  0.00  0.00    +0.000 HD
BRANCH  20  23
ATOM     23  C   UNL     1      -2.755  10.057  14.880  0.00  0.00    +0.000 C 
ATOM     24  H   UNL     1      -2.379   9.043  14.726  0.00  0.00    +0.000 HD
ATOM     25  H   UNL     1      -1.915  10.758  14.821  0.00  0.00    +0.000 HD
ATOM     26  H   UNL     1      -3.160  10.133  15.895  0.00  0.00    +0.000 HD
ENDBRANCH  20  23
ENDBRANCH  19  20
ENDBRANCH  18  19
ENDBRANCH  14  18
ENDBRANCH   1  14
TORSDOF 8
ENDMDL
MODEL 6
REMARK VINA RESULT:    -3.497     15.066     15.789
REMARK INTER + INTRA:          -5.458
REMARK INTER:                  -5.212
REMARK INTRA:                  -0.246
REMARK UNBOUND:                -0.529
REMARK  Name = 31265
REMARK  8 active torsions:
REMARK  status: ('A' for Active; 'I' for Inactive)
REMARK    1  A    between atoms: O_1  and  C_8
REMARK    2  A    between atoms: O_1  and  C_9
REMARK    3  A    between atoms: C_3  and  C_4
REMARK    4  A    between atoms: C_3  and  C_5
REMARK    5  A    between atoms: C_4  and  C_6
REMARK    6  A    between atoms: C_5  and  C_7
REMARK    7  A    between atoms: C_6  and  C_8
REMARK    8  A    between atoms: C_9  and  C_10
REMARK                            x       y       z     vdW  Elec       q    Type
REMARK                         _______ _______ _______ _____ _____    ______ ____
ROOT
ATOM      1  C   UNL     1       6.953  12.943  -0.560  0.00  0.00    +0.000 C 
ATOM      2  H   UNL     1       6.286  13.549  -1.185  0.00  0.00    +0.000 HD
ATOM      3  H   UNL     1       7.398  13.627   0.173  0.00  0.00    +0.000 HD
ENDROOT
BRANCH   1   4
ATOM      4  C   UNL     1       6.140  11.870   0.171  0.00  0.00    +0.000 C 
ATOM      5  H   UNL     1       6.602  10.887   0.016  0.00  0.00    +0.000 HD
ATOM      6  H   UNL     1       5.130  11.825  -0.255  0.00  0.00    +0.000 HD
BRANCH   4   7
ATOM      7  C   UNL     1       6.051  12.169   1.668  0.00  0.00    +0.000 C 
ATOM      8  H   UNL     1       5.001  12.207   1.978  0.00  0.00    +0.000 HD
ATOM      9  H   UNL     1       6.530  11.365   2.239  0.00  0.00    +0.000 HD
BRANCH   7  10
ATOM     10  C   UNL     1       6.723  13.489   2.013  0.00  0.00    +0.000 C 
ATOM     11  H   UNL     1       6.971  13.536   3.078  0.00  0.00    +0.000 HD
ATOM     12  H   UNL     1       7.646  13.621   1.439  0.00  0.00    +0.000 HD
ATOM     13  H   UNL     1       6.056  14.325   1.782  0.00  0.00    +0.000 HD
ENDBRANCH   7  10
ENDBRANCH   4   7
ENDBRANCH   1   4
BRANCH   1  14
ATOM     14  C   UNL     1       8.057  12.346  -1.432  0.00  0.00    +0.000 C 
ATOM     15  H   UNL     1       9.025  12.766  -1.138  0.00  0.00    +0.000 HD
ATOM     16  H   UNL     1       8.085  11.259  -1.287  0.00  0.00    +0.000 HD
BRANCH  14  18
ATOM     17  O   UNL     1       7.047  13.394  -3.380  0.00  0.00    +0.000 OA
ATOM     18  C   UNL     1       7.863  12.616  -2.908  0.00  0.00    +0.000 C 
BRANCH  18  19
ATOM     19  O   UNL     1       8.721  11.826  -3.620  0.00  0.00    +0.000 OA
BRANCH  19  20
ATOM     20  C   UNL     1       9.275  12.423  -4.797  0.00  0.00    +0.000 C 
ATOM     21  H   UNL     1       9.370  11.663  -5.582  0.00  0.00    +0.000 HD
ATOM     22  H   UNL     1       8.615  13.225  -5.146  0.00  0.00    +0.000 HD
BRANCH  20  23
ATOM     23  C   UNL     1      10.639  12.990  -4.468  0.00  0.00    +0.000 C 
ATOM     24  H   UNL     1      11.431  12.409  -4.948  0.00  0.00    +0.000 HD
ATOM     25  H   UNL     1      10.714  14.031  -4.800  0.00  0.00    +0.000 HD
ATOM     26  H   UNL     1      10.806  12.989  -3.386  0.00  0.00    +0.000 HD
ENDBRANCH  20  23
ENDBRANCH  19  20
ENDBRANCH  18  19
ENDBRANCH  14  18
ENDBRANCH   1  14
TORSDOF 8
ENDMDL
MODEL 7
REMARK VINA RESULT:    -3.479     20.948     23.320
REMARK INTER + INTRA:          -5.432
REMARK INTER:                  -5.209
REMARK INTRA:                  -0.224
REMARK UNBOUND:                -0.529
REMARK  Name = 31265
REMARK  8 active torsions:
REMARK  status: ('A' for Active; 'I' for Inactive)
REMARK    1  A    between atoms: O_1  and  C_8
REMARK    2  A    between atoms: O_1  and  C_9
REMARK    3  A    between atoms: C_3  and  C_4
REMARK    4  A    between atoms: C_3  and  C_5
REMARK    5  A    between atoms: C_4  and  C_6
REMARK    6  A    between atoms: C_5  and  C_7
REMARK    7  A    between atoms: C_6  and  C_8
REMARK    8  A    between atoms: C_9  and  C_10
REMARK                            x       y       z     vdW  Elec       q    Type
REMARK                         _______ _______ _______ _____ _____    ______ ____
ROOT
ATOM      1  C   UNL     1     -11.824 -15.340   8.225  0.00  0.00    +0.000 C 
ATOM      2  H   UNL     1     -11.697 -14.983   7.196  0.00  0.00    +0.000 HD
ATOM      3  H   UNL     1     -11.524 -14.513   8.880  0.00  0.00    +0.000 HD
ENDROOT
BRANCH   1   4
ATOM      4  C   UNL     1     -13.296 -15.681   8.475  0.00  0.00    +0.000 C 
ATOM      5  H   UNL     1     -13.371 -16.440   9.262  0.00  0.00    +0.000 HD
ATOM      6  H   UNL     1     -13.729 -16.113   7.564  0.00  0.00    +0.000 HD
BRANCH   4   7
ATOM      7  C   UNL     1     -14.089 -14.437   8.878  0.00  0.00    +0.000 C 
ATOM      8  H   UNL     1     -13.617 -13.542   8.458  0.00  0.00    +0.000 HD
ATOM      9  H   UNL     1     -15.104 -14.492   8.468  0.00  0.00    +0.000 HD
BRANCH   7  10
ATOM     10  C   UNL     1     -14.172 -14.296  10.390  0.00  0.00    +0.000 C 
ATOM     11  H   UNL     1     -15.147 -13.900  10.694  0.00  0.00    +0.000 HD
ATOM     12  H   UNL     1     -14.025 -15.262  10.883  0.00  0.00    +0.000 HD
ATOM     13  H   UNL     1     -13.400 -13.609  10.750  0.00  0.00    +0.000 HD
ENDBRANCH   7  10
ENDBRANCH   4   7
ENDBRANCH   1   4
BRANCH   1  14
ATOM     14  C   UNL     1     -10.900 -16.535   8.462  0.00  0.00    +0.000 C 
ATOM     15  H   UNL     1     -10.920 -16.811   9.522  0.00  0.00    +0.000 HD
ATOM     16  H   UNL     1     -11.252 -17.387   7.868  0.00  0.00    +0.000 HD
BRANCH  14  18
ATOM     17  O   UNL     1      -8.494 -16.892   8.483  0.00  0.00    +0.000 OA
ATOM     18  C   UNL     1      -9.462 -16.262   8.080  0.00  0.00    +0.000 C 
BRANCH  18  19
ATOM     19  O   UNL     1      -9.422 -15.183   7.244  0.00  0.00    +0.000 OA
BRANCH  19  20
ATOM     20  C   UNL     1      -8.161 -14.938   6.613  0.00  0.00    +0.000 C 
ATOM     21  H   UNL     1      -7.518 -15.818   6.728  0.00  0.00    +0.000 HD
ATOM     22  H   UNL     1      -8.317 -14.738   5.548  0.00  0.00    +0.000 HD
BRANCH  20  23
ATOM     23  C   UNL     1      -7.507 -13.739   7.268  0.00  0.00    +0.000 C 
ATOM     24  H   UNL     1      -7.287 -12.963   6.531  0.00  0.00    +0.000 HD
ATOM     25  H   UNL     1      -8.159 -13.318   8.040  0.00  0.00    +0.000 HD
ATOM     26  H   UNL     1      -6.575 -14.031   7.764  0.00  0.00    +0.000 HD
ENDBRANCH  20  23
ENDBRANCH  19  20
ENDBRANCH  18  19
ENDBRANCH  14  18
ENDBRANCH   1  14
TORSDOF 8
ENDMDL
MODEL 8
REMARK VINA RESULT:    -3.437     15.677     18.034
REMARK INTER + INTRA:          -5.373
REMARK INTER:                  -5.032
REMARK INTRA:                  -0.340
REMARK UNBOUND:                -0.529
REMARK  Name = 31265
REMARK  8 active torsions:
REMARK  status: ('A' for Active; 'I' for Inactive)
REMARK    1  A    between atoms: O_1  and  C_8
REMARK    2  A    between atoms: O_1  and  C_9
REMARK    3  A    between atoms: C_3  and  C_4
REMARK    4  A    between atoms: C_3  and  C_5
REMARK    5  A    between atoms: C_4  and  C_6
REMARK    6  A    between atoms: C_5  and  C_7
REMARK    7  A    between atoms: C_6  and  C_8
REMARK    8  A    between atoms: C_9  and  C_10
REMARK                            x       y       z     vdW  Elec       q    Type
REMARK                         _______ _______ _______ _____ _____    ______ ____
ROOT
ATOM      1  C   UNL     1      -5.894 -13.706   6.332  0.00  0.00    +0.000 C 
ATOM      2  H   UNL     1      -4.985 -13.552   6.927  0.00  0.00    +0.000 HD
ATOM      3  H   UNL     1      -5.846 -14.734   5.952  0.00  0.00    +0.000 HD
ENDROOT
BRANCH   1   4
ATOM      4  C   UNL     1      -7.127 -13.551   7.228  0.00  0.00    +0.000 C 
ATOM      5  H   UNL     1      -7.677 -12.645   6.945  0.00  0.00    +0.000 HD
ATOM      6  H   UNL     1      -6.808 -13.425   8.270  0.00  0.00    +0.000 HD
BRANCH   4   7
ATOM      7  C   UNL     1      -8.046 -14.768   7.117  0.00  0.00    +0.000 C 
ATOM      8  H   UNL     1      -7.448 -15.673   6.961  0.00  0.00    +0.000 HD
ATOM      9  H   UNL     1      -8.602 -14.903   8.052  0.00  0.00    +0.000 HD
BRANCH   7  10
ATOM     10  C   UNL     1      -9.034 -14.617   5.972  0.00  0.00    +0.000 C 
ATOM     11  H   UNL     1      -8.624 -15.030   5.043  0.00  0.00    +0.000 HD
ATOM     12  H   UNL     1      -9.973 -15.135   6.192  0.00  0.00    +0.000 HD
ATOM     13  H   UNL     1      -9.261 -13.560   5.802  0.00  0.00    +0.000 HD
ENDBRANCH   7  10
ENDBRANCH   4   7
ENDBRANCH   1   4
BRANCH   1  14
ATOM     14  C   UNL     1      -5.899 -12.729   5.156  0.00  0.00    +0.000 C 
ATOM     15  H   UNL     1      -6.666 -11.964   5.318  0.00  0.00    +0.000 HD
ATOM     16  H   UNL     1      -4.920 -12.241   5.089  0.00  0.00    +0.000 HD
BRANCH  14  18
ATOM     17  O   UNL     1      -6.114 -14.598   3.615  0.00  0.00    +0.000 OA
ATOM     18  C   UNL     1      -6.183 -13.396   3.829  0.00  0.00    +0.000 C 
BRANCH  18  19
ATOM     19  O   UNL     1      -6.493 -12.436   2.907  0.00  0.00    +0.000 OA
BRANCH  19  20
ATOM     20  C   UNL     1      -6.312 -12.814   1.539  0.00  0.00    +0.000 C 
ATOM     21  H   UNL     1      -6.251 -13.906   1.466  0.00  0.00    +0.000 HD
ATOM     22  H   UNL     1      -7.161 -12.458   0.946  0.00  0.00    +0.000 HD
BRANCH  20  23
ATOM     23  C   UNL     1      -5.032 -12.195   1.021  0.00  0.00    +0.000 C 
ATOM     24  H   UNL     1      -4.681 -12.713   0.124  0.00  0.00    +0.000 HD
ATOM     25  H   UNL     1      -5.185 -11.137   0.780  0.00  0.00    +0.000 HD
ATOM     26  H   UNL     1      -4.247 -12.237   1.783  0.00  0.00    +0.000 HD
ENDBRANCH  20  23
ENDBRANCH  19  20
ENDBRANCH  18  19
ENDBRANCH  14  18
ENDBRANCH   1  14
TORSDOF 8
ENDMDL
MODEL 9
REMARK VINA RESULT:    -3.434      9.087     10.204
REMARK INTER + INTRA:          -5.369
REMARK INTER:                  -5.175
REMARK INTRA:                  -0.194
REMARK UNBOUND:                -0.529
REMARK  Name = 31265
REMARK  8 active torsions:
REMARK  status: ('A' for Active; 'I' for Inactive)
REMARK    1  A    between atoms: O_1  and  C_8
REMARK    2  A    between atoms: O_1  and  C_9
REMARK    3  A    between atoms: C_3  and  C_4
REMARK    4  A    between atoms: C_3  and  C_5
REMARK    5  A    between atoms: C_4  and  C_6
REMARK    6  A    between atoms: C_5  and  C_7
REMARK    7  A    between atoms: C_6  and  C_8
REMARK    8  A    between atoms: C_9  and  C_10
REMARK                            x       y       z     vdW  Elec       q    Type
REMARK                         _______ _______ _______ _____ _____    ______ ____
ROOT
ATOM      1  C   UNL     1      11.735 -10.135  -2.517  0.00  0.00    +0.000 C 
ATOM      2  H   UNL     1      12.514 -10.628  -1.923  0.00  0.00    +0.000 HD
ATOM      3  H   UNL     1      10.998 -10.908  -2.765  0.00  0.00    +0.000 HD
ENDROOT
BRANCH   1   4
ATOM      4  C   UNL     1      11.066  -9.040  -1.682  0.00  0.00    +0.000 C 
ATOM      5  H   UNL     1      10.472  -8.388  -2.335  0.00  0.00    +0.000 HD
ATOM      6  H   UNL     1      11.837  -8.416  -1.214  0.00  0.00    +0.000 HD
BRANCH   4   7
ATOM      7  C   UNL     1      10.169  -9.642  -0.600  0.00  0.00    +0.000 C 
ATOM      8  H   UNL     1      10.770  -9.903   0.279  0.00  0.00    +0.000 HD
ATOM      9  H   UNL     1       9.425  -8.905  -0.277  0.00  0.00    +0.000 HD
BRANCH   7  10
ATOM     10  C   UNL     1       9.450 -10.885  -1.101  0.00  0.00    +0.000 C 
ATOM     11  H   UNL     1      10.117 -11.506  -1.708  0.00  0.00    +0.000 HD
ATOM     12  H   UNL     1       9.083 -11.489  -0.265  0.00  0.00    +0.000 HD
ATOM     13  H   UNL     1       8.592 -10.603  -1.719  0.00  0.00    +0.000 HD
ENDBRANCH   7  10
ENDBRANCH   4   7
ENDBRANCH   1   4
BRANCH   1  14
ATOM     14  C   UNL     1      12.353  -9.591  -3.806  0.00  0.00    +0.000 C 
ATOM     15  H   UNL     1      11.847 -10.033  -4.671  0.00  0.00    +0.000 HD
ATOM     16  H   UNL     1      12.222  -8.503  -3.838  0.00  0.00    +0.000 HD
BRANCH  14  18
ATOM     17  O   UNL     1      14.682  -9.090  -4.296  0.00  0.00    +0.000 OA
ATOM     18  C   UNL     1      13.830  -9.889  -3.931  0.00  0.00    +0.000 C 
BRANCH  18  19
ATOM     19  O   UNL     1      14.050 -11.196  -3.602  0.00  0.00    +0.000 OA
BRANCH  19  20
ATOM     20  C   UNL     1      15.268 -11.761  -4.097  0.00  0.00    +0.000 C 
ATOM     21  H   UNL     1      15.139 -12.045  -5.148  0.00  0.00    +0.000 HD
ATOM     22  H   UNL     1      16.073 -11.022  -4.017  0.00  0.00    +0.000 HD
BRANCH  20  23
ATOM     23  C   UNL     1      15.613 -12.985  -3.277  0.00  0.00    +0.000 C 
ATOM     24  H   UNL     1      14.732 -13.368  -2.755  0.00  0.00    +0.000 HD
ATOM     25  H   UNL     1      16.016 -13.777  -3.917  0.00  0.00    +0.000 HD
ATOM     26  H   UNL     1      16.387 -12.750  -2.539  0.00  0.00    +0.000 HD
ENDBRANCH  20  23
ENDBRANCH  19  20
ENDBRANCH  18  19
ENDBRANCH  14  18
ENDBRANCH   1  14
TORSDOF 8
ENDMDL
MODEL 10
REMARK VINA RESULT:    -3.404     14.196     15.221
REMARK INTER + INTRA:          -5.326
REMARK INTER:                  -4.797
REMARK INTRA:                  -0.529
REMARK UNBOUND:                -0.529
REMARK  Name = 31265
REMARK  8 active torsions:
REMARK  status: ('A' for Active; 'I' for Inactive)
REMARK    1  A    between atoms: O_1  and  C_8
REMARK    2  A    between atoms: O_1  and  C_9
REMARK    3  A    between atoms: C_3  and  C_4
REMARK    4  A    between atoms: C_3  and  C_5
REMARK    5  A    between atoms: C_4  and  C_6
REMARK    6  A    between atoms: C_5  and  C_7
REMARK    7  A    between atoms: C_6  and  C_8
REMARK    8  A    between atoms: C_9  and  C_10
REMARK                            x       y       z     vdW  Elec       q    Type
REMARK                         _______ _______ _______ _____ _____    ______ ____
ROOT
ATOM      1  C   UNL     1      -5.077  -6.732  -9.752  0.00  0.00    +0.000 C 
ATOM      2  H   UNL     1      -5.458  -6.246 -10.659  0.00  0.00    +0.000 HD
ATOM      3  H   UNL     1      -5.341  -7.794  -9.834  0.00  0.00    +0.000 HD
ENDROOT
BRANCH   1   4
ATOM      4  C   UNL     1      -3.553  -6.589  -9.693  0.00  0.00    +0.000 C 
ATOM      5  H   UNL     1      -3.280  -5.879  -8.903  0.00  0.00    +0.000 HD
ATOM      6  H   UNL     1      -3.189  -6.175 -10.641  0.00  0.00    +0.000 HD
BRANCH   4   7
ATOM      7  C   UNL     1      -2.882  -7.937  -9.431  0.00  0.00    +0.000 C 
ATOM      8  H   UNL     1      -1.795  -7.837  -9.530  0.00  0.00    +0.000 HD
ATOM      9  H   UNL     1      -3.086  -8.264  -8.405  0.00  0.00    +0.000 HD
BRANCH   7  10
ATOM     10  C   UNL     1      -3.375  -9.002 -10.398  0.00  0.00    +0.000 C 
ATOM     11  H   UNL     1      -3.870  -8.547 -11.263  0.00  0.00    +0.000 HD
ATOM     12  H   UNL     1      -2.546  -9.617 -10.761  0.00  0.00    +0.000 HD
ATOM     13  H   UNL     1      -4.096  -9.660  -9.902  0.00  0.00    +0.000 HD
ENDBRANCH   7  10
ENDBRANCH   4   7
ENDBRANCH   1   4
BRANCH   1  14
ATOM     14  C   UNL     1      -5.769  -6.130  -8.529  0.00  0.00    +0.000 C 
ATOM     15  H   UNL     1      -5.015  -5.737  -7.838  0.00  0.00    +0.000 HD
ATOM     16  H   UNL     1      -6.418  -5.307  -8.850  0.00  0.00    +0.000 HD
BRANCH  14  18
ATOM     17  O   UNL     1      -7.590  -6.848  -7.087  0.00  0.00    +0.000 OA
ATOM     18  C   UNL     1      -6.617  -7.128  -7.773  0.00  0.00    +0.000 C 
BRANCH  18  19
ATOM     19  O   UNL     1      -6.100  -8.379  -7.954  0.00  0.00    +0.000 OA
BRANCH  19  20
ATOM     20  C   UNL     1      -5.794  -9.100  -6.757  0.00  0.00    +0.000 C 
ATOM     21  H   UNL     1      -5.484  -8.396  -5.975  0.00  0.00    +0.000 HD
ATOM     22  H   UNL     1      -6.682  -9.647  -6.422  0.00  0.00    +0.000 HD
BRANCH  20  23
ATOM     23  C   UNL     1      -4.671 -10.074  -7.040  0.00  0.00    +0.000 C 
ATOM     24  H   UNL     1      -5.062 -11.021  -7.423  0.00  0.00    +0.000 HD
ATOM     25  H   UNL     1      -3.975  -9.657  -7.776  0.00  0.00    +0.000 HD
ATOM     26  H   UNL     1      -4.092 -10.272  -6.132  0.00  0.00    +0.000 HD
ENDBRANCH  20  23
ENDBRANCH  19  20
ENDBRANCH  18  19
ENDBRANCH  14  18
ENDBRANCH   1  14
TORSDOF 8
ENDMDL
