MODEL 1
REMARK VINA RESULT:    -3.478      0.000      0.000
REMARK INTER + INTRA:          -5.122
REMARK INTER:                  -4.596
REMARK INTRA:                  -0.527
REMARK UNBOUND:                -0.525
REMARK  Name = 62572
REMARK  7 active torsions:
REMARK  status: ('A' for Active; 'I' for Inactive)
REMARK    1  A    between atoms: O_1  and  C_7
REMARK    2  A    between atoms: O_1  and  C_8
REMARK    3  A    between atoms: O_2  and  C_4
REMARK    4  A    between atoms: C_4  and  C_5
REMARK    5  A    between atoms: C_4  and  C_6
REMARK    6  A    between atoms: C_5  and  C_7
REMARK    7  A    between atoms: C_8  and  C_9
REMARK                            x       y       z     vdW  Elec       q    Type
REMARK                         _______ _______ _______ _____ _____    ______ ____
ROOT
ATOM      1  C   UNL     1       5.797 -12.954   0.360  0.00  0.00    +0.000 C 
ATOM      2  H   UNL     1       5.867 -13.903  -0.189  0.00  0.00    +0.000 HD
ATOM      3  H   UNL     1       5.648 -13.174   1.422  0.00  0.00    +0.000 HD
ENDROOT
BRANCH   1   5
ATOM      4  O   UNL     1       4.259 -12.098  -1.323  0.00  0.00    +0.000 OA
ATOM      5  C   UNL     1       4.576 -12.218  -0.147  0.00  0.00    +0.000 C 
BRANCH   5   6
ATOM      6  O   UNL     1       3.892 -11.710   0.921  0.00  0.00    +0.000 OA
BRANCH   6   7
ATOM      7  C   UNL     1       3.972 -12.478   2.127  0.00  0.00    +0.000 C 
ATOM      8  H   UNL     1       4.104 -13.537   1.876  0.00  0.00    +0.000 HD
ATOM      9  H   UNL     1       4.826 -12.137   2.721  0.00  0.00    +0.000 HD
BRANCH   7  10
ATOM     10  C   UNL     1       2.692 -12.295   2.913  0.00  0.00    +0.000 C 
ATOM     11  H   UNL     1       2.017 -13.143   2.766  0.00  0.00    +0.000 HD
ATOM     12  H   UNL     1       2.908 -12.198   3.983  0.00  0.00    +0.000 HD
ATOM     13  H   UNL     1       2.179 -11.378   2.608  0.00  0.00    +0.000 HD
ENDBRANCH   7  10
ENDBRANCH   6   7
ENDBRANCH   5   6
ENDBRANCH   1   5
BRANCH   1  14
ATOM     14  C   UNL     1       7.088 -12.164   0.139  0.00  0.00    +0.000 C 
ATOM     15  H   UNL     1       7.641 -12.048   1.078  0.00  0.00    +0.000 HD
BRANCH  14  16
ATOM     16  C   UNL     1       7.978 -12.845  -0.894  0.00  0.00    +0.000 C 
ATOM     17  H   UNL     1       8.716 -13.484  -0.396  0.00  0.00    +0.000 HD
ATOM     18  H   UNL     1       8.543 -12.107  -1.474  0.00  0.00    +0.000 HD
ATOM     19  H   UNL     1       7.390 -13.460  -1.582  0.00  0.00    +0.000 HD
ENDBRANCH  14  16
BRANCH  14  20
ATOM     20  O   UNL     1       6.751 -10.864  -0.337  0.00  0.00    +0.000 OA
ATOM     21  H   UNL     1       7.086 -10.215   0.304  0.00  0.00    +0.000 HD
ENDBRANCH  14  20
ENDBRANCH   1  14
TORSDOF 7
ENDMDL
MODEL 2
REMARK VINA RESULT:    -3.451     26.129     27.264
REMARK INTER + INTRA:          -5.086
REMARK INTER:                  -4.916
REMARK INTRA:                  -0.169
REMARK UNBOUND:                -0.525
REMARK  Name = 62572
REMARK  7 active torsions:
REMARK  status: ('A' for Active; 'I' for Inactive)
REMARK    1  A    between atoms: O_1  and  C_7
REMARK    2  A    between atoms: O_1  and  C_8
REMARK    3  A    between atoms: O_2  and  C_4
REMARK    4  A    between atoms: C_4  and  C_5
REMARK    5  A    between atoms: C_4  and  C_6
REMARK    6  A    between atoms: C_5  and  C_7
REMARK    7  A    between atoms: C_8  and  C_9
REMARK                            x       y       z     vdW  Elec       q    Type
REMARK                         _______ _______ _______ _____ _____    ______ ____
ROOT
ATOM      1  C   UNL     1     -18.678  -1.343   7.896  0.00  0.00    +0.000 C 
ATOM      2  H   UNL     1     -18.803  -0.295   8.199  0.00  0.00    +0.000 HD
ATOM      3  H   UNL     1     -19.665  -1.770   7.691  0.00  0.00    +0.000 HD
ENDROOT
BRANCH   1   5
ATOM      4  O   UNL     1     -17.033  -2.733   9.034  0.00  0.00    +0.000 OA
ATOM      5  C   UNL     1     -18.073  -2.090   9.066  0.00  0.00    +0.000 C 
BRANCH   5   6
ATOM      6  O   UNL     1     -18.881  -1.929  10.157  0.00  0.00    +0.000 OA
BRANCH   6   7
ATOM      7  C   UNL     1     -20.278  -1.797   9.875  0.00  0.00    +0.000 C 
ATOM      8  H   UNL     1     -20.649  -0.857  10.301  0.00  0.00    +0.000 HD
ATOM      9  H   UNL     1     -20.433  -1.791   8.791  0.00  0.00    +0.000 HD
BRANCH   7  10
ATOM     10  C   UNL     1     -21.017  -2.964  10.493  0.00  0.00    +0.000 C 
ATOM     11  H   UNL     1     -21.957  -2.637  10.946  0.00  0.00    +0.000 HD
ATOM     12  H   UNL     1     -21.237  -3.725   9.736  0.00  0.00    +0.000 HD
ATOM     13  H   UNL     1     -20.404  -3.447  11.260  0.00  0.00    +0.000 HD
ENDBRANCH   7  10
ENDBRANCH   6   7
ENDBRANCH   5   6
ENDBRANCH   1   5
BRANCH   1  14
ATOM     14  C   UNL     1     -17.790  -1.392   6.652  0.00  0.00    +0.000 C 
ATOM     15  H   UNL     1     -16.818  -1.841   6.883  0.00  0.00    +0.000 HD
BRANCH  14  16
ATOM     16  C   UNL     1     -18.460  -2.176   5.530  0.00  0.00    +0.000 C 
ATOM     17  H   UNL     1     -19.550  -2.118   5.625  0.00  0.00    +0.000 HD
ATOM     18  H   UNL     1     -18.196  -3.238   5.580  0.00  0.00    +0.000 HD
ATOM     19  H   UNL     1     -18.174  -1.787   4.548  0.00  0.00    +0.000 HD
ENDBRANCH  14  16
BRANCH  14  20
ATOM     20  O   UNL     1     -17.562  -0.059   6.202  0.00  0.00    +0.000 OA
ATOM     21  H   UNL     1     -16.609   0.042   6.037  0.00  0.00    +0.000 HD
ENDBRANCH  14  20
ENDBRANCH   1  14
TORSDOF 7
ENDMDL
MODEL 3
REMARK VINA RESULT:    -3.437      5.366      8.054
REMARK INTER + INTRA:          -5.067
REMARK INTER:                  -4.769
REMARK INTRA:                  -0.298
REMARK UNBOUND:                -0.525
REMARK  Name = 62572
REMARK  7 active torsions:
REMARK  status: ('A' for Active; 'I' for Inactive)
REMARK    1  A    between atoms: O_1  and  C_7
REMARK    2  A    between atoms: O_1  and  C_8
REMARK    3  A    between atoms: O_2  and  C_4
REMARK    4  A    between atoms: C_4  and  C_5
REMARK    5  A    between atoms: C_4  and  C_6
REMARK    6  A    between atoms: C_5  and  C_7
REMARK    7  A    between atoms: C_8  and  C_9
REMARK                            x       y       z     vdW  Elec       q    Type
REMARK                         _______ _______ _______ _____ _____    ______ ____
ROOT
ATOM      1  C   UNL     1      10.694  -8.657  -1.408  0.00  0.00    +0.000 C 
ATOM      2  H   UNL     1      10.024  -8.128  -2.099  0.00  0.00    +0.000 HD
ATOM      3  H   UNL     1      11.485  -7.970  -1.091  0.00  0.00    +0.000 HD
ENDROOT
BRANCH   1   5
ATOM      4  O   UNL     1      10.776 -10.836  -2.493  0.00  0.00    +0.000 OA
ATOM      5  C   UNL     1      11.335  -9.796  -2.172  0.00  0.00    +0.000 C 
BRANCH   5   6
ATOM      6  O   UNL     1      12.636  -9.472  -2.439  0.00  0.00    +0.000 OA
BRANCH   6   7
ATOM      7  C   UNL     1      13.088  -9.778  -3.762  0.00  0.00    +0.000 C 
ATOM      8  H   UNL     1      12.237 -10.095  -4.374  0.00  0.00    +0.000 HD
ATOM      9  H   UNL     1      13.544  -8.886  -4.206  0.00  0.00    +0.000 HD
BRANCH   7  10
ATOM     10  C   UNL     1      14.108 -10.893  -3.688  0.00  0.00    +0.000 C 
ATOM     11  H   UNL     1      15.117 -10.493  -3.551  0.00  0.00    +0.000 HD
ATOM     12  H   UNL     1      13.881 -11.568  -2.855  0.00  0.00    +0.000 HD
ATOM     13  H   UNL     1      14.088 -11.496  -4.601  0.00  0.00    +0.000 HD
ENDBRANCH   7  10
ENDBRANCH   6   7
ENDBRANCH   5   6
ENDBRANCH   1   5
BRANCH   1  14
ATOM     14  C   UNL     1       9.878  -9.145  -0.210  0.00  0.00    +0.000 C 
ATOM     15  H   UNL     1       9.920  -8.422   0.612  0.00  0.00    +0.000 HD
BRANCH  14  16
ATOM     16  C   UNL     1       8.425  -9.389  -0.599  0.00  0.00    +0.000 C 
ATOM     17  H   UNL     1       8.352  -9.621  -1.668  0.00  0.00    +0.000 HD
ATOM     18  H   UNL     1       7.816  -8.495  -0.430  0.00  0.00    +0.000 HD
ATOM     19  H   UNL     1       7.996 -10.221  -0.032  0.00  0.00    +0.000 HD
ENDBRANCH  14  16
BRANCH  14  20
ATOM     20  O   UNL     1      10.437 -10.371   0.254  0.00  0.00    +0.000 OA
ATOM     21  H   UNL     1      10.028 -11.095  -0.249  0.00  0.00    +0.000 HD
ENDBRANCH  14  20
ENDBRANCH   1  14
TORSDOF 7
ENDMDL
MODEL 4
REMARK VINA RESULT:    -3.365      1.579      4.502
REMARK INTER + INTRA:          -4.972
REMARK INTER:                  -4.639
REMARK INTRA:                  -0.334
REMARK UNBOUND:                -0.525
REMARK  Name = 62572
REMARK  7 active torsions:
REMARK  status: ('A' for Active; 'I' for Inactive)
REMARK    1  A    between atoms: O_1  and  C_7
REMARK    2  A    between atoms: O_1  and  C_8
REMARK    3  A    between atoms: O_2  and  C_4
REMARK    4  A    between atoms: C_4  and  C_5
REMARK    5  A    between atoms: C_4  and  C_6
REMARK    6  A    between atoms: C_5  and  C_7
REMARK    7  A    between atoms: C_8  and  C_9
REMARK                            x       y       z     vdW  Elec       q    Type
REMARK                         _______ _______ _______ _____ _____    ______ ____
ROOT
ATOM      1  C   UNL     1       4.292 -12.391   1.223  0.00  0.00    +0.000 C 
ATOM      2  H   UNL     1       4.006 -13.282   0.647  0.00  0.00    +0.000 HD
ATOM      3  H   UNL     1       3.810 -11.516   0.776  0.00  0.00    +0.000 HD
ENDROOT
BRANCH   1   5
ATOM      4  O   UNL     1       6.594 -12.322   2.014  0.00  0.00    +0.000 OA
ATOM      5  C   UNL     1       5.791 -12.223   1.096  0.00  0.00    +0.000 C 
BRANCH   5   6
ATOM      6  O   UNL     1       6.095 -11.941  -0.206  0.00  0.00    +0.000 OA
BRANCH   6   7
ATOM      7  C   UNL     1       7.484 -12.006  -0.543  0.00  0.00    +0.000 C 
ATOM      8  H   UNL     1       7.725 -11.206  -1.252  0.00  0.00    +0.000 HD
ATOM      9  H   UNL     1       8.086 -11.881   0.364  0.00  0.00    +0.000 HD
BRANCH   7  10
ATOM     10  C   UNL     1       7.776 -13.351  -1.172  0.00  0.00    +0.000 C 
ATOM     11  H   UNL     1       8.449 -13.246  -2.027  0.00  0.00    +0.000 HD
ATOM     12  H   UNL     1       8.236 -14.026  -0.441  0.00  0.00    +0.000 HD
ATOM     13  H   UNL     1       6.850 -13.829  -1.507  0.00  0.00    +0.000 HD
ENDBRANCH   7  10
ENDBRANCH   6   7
ENDBRANCH   5   6
ENDBRANCH   1   5
BRANCH   1  14
ATOM     14  C   UNL     1       3.847 -12.582   2.673  0.00  0.00    +0.000 C 
ATOM     15  H   UNL     1       4.311 -11.835   3.326  0.00  0.00    +0.000 HD
BRANCH  14  16
ATOM     16  C   UNL     1       2.330 -12.494   2.799  0.00  0.00    +0.000 C 
ATOM     17  H   UNL     1       1.911 -13.481   3.023  0.00  0.00    +0.000 HD
ATOM     18  H   UNL     1       1.876 -12.166   1.857  0.00  0.00    +0.000 HD
ATOM     19  H   UNL     1       2.036 -11.801   3.593  0.00  0.00    +0.000 HD
ENDBRANCH  14  16
BRANCH  14  20
ATOM     20  O   UNL     1       4.265 -13.871   3.113  0.00  0.00    +0.000 OA
ATOM     21  H   UNL     1       3.548 -14.499   2.923  0.00  0.00    +0.000 HD
ENDBRANCH  14  20
ENDBRANCH   1  14
TORSDOF 7
ENDMDL
MODEL 5
REMARK VINA RESULT:    -3.262     24.559     25.286
REMARK INTER + INTRA:          -4.837
REMARK INTER:                  -4.469
REMARK INTRA:                  -0.368
REMARK UNBOUND:                -0.525
REMARK  Name = 62572
REMARK  7 active torsions:
REMARK  status: ('A' for Active; 'I' for Inactive)
REMARK    1  A    between atoms: O_1  and  C_7
REMARK    2  A    between atoms: O_1  and  C_8
REMARK    3  A    between atoms: O_2  and  C_4
REMARK    4  A    between atoms: C_4  and  C_5
REMARK    5  A    between atoms: C_4  and  C_6
REMARK    6  A    between atoms: C_5  and  C_7
REMARK    7  A    between atoms: C_8  and  C_9
REMARK                            x       y       z     vdW  Elec       q    Type
REMARK                         _______ _______ _______ _____ _____    ______ ____
ROOT
ATOM      1  C   UNL     1       6.713  13.281   0.693  0.00  0.00    +0.000 C 
ATOM      2  H   UNL     1       6.102  14.068   1.154  0.00  0.00    +0.000 HD
ATOM      3  H   UNL     1       7.710  13.301   1.145  0.00  0.00    +0.000 HD
ENDROOT
BRANCH   1   5
ATOM      4  O   UNL     1       5.927  13.850  -1.540  0.00  0.00    +0.000 OA
ATOM      5  C   UNL     1       6.853  13.610  -0.778  0.00  0.00    +0.000 C 
BRANCH   5   6
ATOM      6  O   UNL     1       8.179  13.592  -1.109  0.00  0.00    +0.000 OA
BRANCH   6   7
ATOM      7  C   UNL     1       8.481  13.076  -2.410  0.00  0.00    +0.000 C 
ATOM      8  H   UNL     1       7.630  13.249  -3.078  0.00  0.00    +0.000 HD
ATOM      9  H   UNL     1       9.365  13.586  -2.808  0.00  0.00    +0.000 HD
BRANCH   7  10
ATOM     10  C   UNL     1       8.752  11.591  -2.301  0.00  0.00    +0.000 C 
ATOM     11  H   UNL     1       9.624  11.307  -2.896  0.00  0.00    +0.000 HD
ATOM     12  H   UNL     1       8.930  11.308  -1.257  0.00  0.00    +0.000 HD
ATOM     13  H   UNL     1       7.886  11.015  -2.643  0.00  0.00    +0.000 HD
ENDBRANCH   7  10
ENDBRANCH   6   7
ENDBRANCH   5   6
ENDBRANCH   1   5
BRANCH   1  14
ATOM     14  C   UNL     1       6.031  11.932   0.926  0.00  0.00    +0.000 C 
ATOM     15  H   UNL     1       6.729  11.106   0.750  0.00  0.00    +0.000 HD
BRANCH  14  16
ATOM     16  C   UNL     1       5.476  11.835   2.342  0.00  0.00    +0.000 C 
ATOM     17  H   UNL     1       5.955  11.011   2.882  0.00  0.00    +0.000 HD
ATOM     18  H   UNL     1       4.402  11.620   2.330  0.00  0.00    +0.000 HD
ATOM     19  H   UNL     1       5.644  12.762   2.900  0.00  0.00    +0.000 HD
ENDBRANCH  14  16
BRANCH  14  20
ATOM     20  O   UNL     1       4.952  11.801   0.005  0.00  0.00    +0.000 OA
ATOM     21  H   UNL     1       4.440  11.013   0.255  0.00  0.00    +0.000 HD
ENDBRANCH  14  20
ENDBRANCH   1  14
TORSDOF 7
ENDMDL
MODEL 6
REMARK VINA RESULT:    -3.252     25.028     25.732
REMARK INTER + INTRA:          -4.824
REMARK INTER:                  -4.304
REMARK INTRA:                  -0.519
REMARK UNBOUND:                -0.525
REMARK  Name = 62572
REMARK  7 active torsions:
REMARK  status: ('A' for Active; 'I' for Inactive)
REMARK    1  A    between atoms: O_1  and  C_7
REMARK    2  A    between atoms: O_1  and  C_8
REMARK    3  A    between atoms: O_2  and  C_4
REMARK    4  A    between atoms: C_4  and  C_5
REMARK    5  A    between atoms: C_4  and  C_6
REMARK    6  A    between atoms: C_5  and  C_7
REMARK    7  A    between atoms: C_8  and  C_9
REMARK                            x       y       z     vdW  Elec       q    Type
REMARK                         _______ _______ _______ _____ _____    ______ ____
ROOT
ATOM      1  C   UNL     1       8.845  13.797  -5.267  0.00  0.00    +0.000 C 
ATOM      2  H   UNL     1       9.650  14.524  -5.436  0.00  0.00    +0.000 HD
ATOM      3  H   UNL     1       7.980  14.322  -4.851  0.00  0.00    +0.000 HD
ENDROOT
BRANCH   1   5
ATOM      4  O   UNL     1      10.495  12.440  -4.097  0.00  0.00    +0.000 OA
ATOM      5  C   UNL     1       9.335  12.801  -4.237  0.00  0.00    +0.000 C 
BRANCH   5   6
ATOM      6  O   UNL     1       8.269  12.373  -3.496  0.00  0.00    +0.000 OA
BRANCH   6   7
ATOM      7  C   UNL     1       8.582  11.897  -2.183  0.00  0.00    +0.000 C 
ATOM      8  H   UNL     1       8.490  10.805  -2.159  0.00  0.00    +0.000 HD
ATOM      9  H   UNL     1       9.609  12.181  -1.927  0.00  0.00    +0.000 HD
BRANCH   7  10
ATOM     10  C   UNL     1       7.618  12.513  -1.193  0.00  0.00    +0.000 C 
ATOM     11  H   UNL     1       6.733  11.883  -1.064  0.00  0.00    +0.000 HD
ATOM     12  H   UNL     1       8.100  12.648  -0.219  0.00  0.00    +0.000 HD
ATOM     13  H   UNL     1       7.299  13.505  -1.530  0.00  0.00    +0.000 HD
ENDBRANCH   7  10
ENDBRANCH   6   7
ENDBRANCH   5   6
ENDBRANCH   1   5
BRANCH   1  14
ATOM     14  C   UNL     1       8.496  13.133  -6.600  0.00  0.00    +0.000 C 
ATOM     15  H   UNL     1       7.495  13.428  -6.933  0.00  0.00    +0.000 HD
BRANCH  14  16
ATOM     16  C   UNL     1       9.515  13.491  -7.675  0.00  0.00    +0.000 C 
ATOM     17  H   UNL     1      10.265  14.181  -7.272  0.00  0.00    +0.000 HD
ATOM     18  H   UNL     1       9.037  14.004  -8.516  0.00  0.00    +0.000 HD
ATOM     19  H   UNL     1      10.027  12.599  -8.050  0.00  0.00    +0.000 HD
ENDBRANCH  14  16
BRANCH  14  20
ATOM     20  O   UNL     1       8.502  11.719  -6.421  0.00  0.00    +0.000 OA
ATOM     21  H   UNL     1       9.349  11.473  -6.012  0.00  0.00    +0.000 HD
ENDBRANCH  14  20
ENDBRANCH   1  14
TORSDOF 7
ENDMDL
MODEL 7
REMARK VINA RESULT:    -3.133     10.694     12.817
REMARK INTER + INTRA:          -4.666
REMARK INTER:                  -4.197
REMARK INTRA:                  -0.469
REMARK UNBOUND:                -0.525
REMARK  Name = 62572
REMARK  7 active torsions:
REMARK  status: ('A' for Active; 'I' for Inactive)
REMARK    1  A    between atoms: O_1  and  C_7
REMARK    2  A    between atoms: O_1  and  C_8
REMARK    3  A    between atoms: O_2  and  C_4
REMARK    4  A    between atoms: C_4  and  C_5
REMARK    5  A    between atoms: C_4  and  C_6
REMARK    6  A    between atoms: C_5  and  C_7
REMARK    7  A    between atoms: C_8  and  C_9
REMARK                            x       y       z     vdW  Elec       q    Type
REMARK                         _______ _______ _______ _____ _____    ______ ____
ROOT
ATOM      1  C   UNL     1      -5.833 -12.722   5.343  0.00  0.00    +0.000 C 
ATOM      2  H   UNL     1      -5.977 -11.792   5.908  0.00  0.00    +0.000 HD
ATOM      3  H   UNL     1      -4.772 -12.821   5.094  0.00  0.00    +0.000 HD
ENDROOT
BRANCH   1   5
ATOM      4  O   UNL     1      -7.770 -12.214   3.957  0.00  0.00    +0.000 OA
ATOM      5  C   UNL     1      -6.613 -12.600   4.051  0.00  0.00    +0.000 C 
BRANCH   5   6
ATOM      6  O   UNL     1      -5.815 -12.996   3.015  0.00  0.00    +0.000 OA
BRANCH   6   7
ATOM      7  C   UNL     1      -5.427 -11.960   2.106  0.00  0.00    +0.000 C 
ATOM      8  H   UNL     1      -6.321 -11.447   1.735  0.00  0.00    +0.000 HD
ATOM      9  H   UNL     1      -4.784 -11.241   2.625  0.00  0.00    +0.000 HD
BRANCH   7  10
ATOM     10  C   UNL     1      -4.675 -12.578   0.947  0.00  0.00    +0.000 C 
ATOM     11  H   UNL     1      -3.633 -12.774   1.217  0.00  0.00    +0.000 HD
ATOM     12  H   UNL     1      -5.144 -13.520   0.643  0.00  0.00    +0.000 HD
ATOM     13  H   UNL     1      -4.696 -11.916   0.076  0.00  0.00    +0.000 HD
ENDBRANCH   7  10
ENDBRANCH   6   7
ENDBRANCH   5   6
ENDBRANCH   1   5
BRANCH   1  14
ATOM     14  C   UNL     1      -6.307 -13.895   6.202  0.00  0.00    +0.000 C 
ATOM     15  H   UNL     1      -5.459 -14.401   6.676  0.00  0.00    +0.000 HD
BRANCH  14  16
ATOM     16  C   UNL     1      -7.285 -13.430   7.274  0.00  0.00    +0.000 C 
ATOM     17  H   UNL     1      -8.273 -13.873   7.104  0.00  0.00    +0.000 HD
ATOM     18  H   UNL     1      -7.419 -12.343   7.241  0.00  0.00    +0.000 HD
ATOM     19  H   UNL     1      -6.943 -13.713   8.274  0.00  0.00    +0.000 HD
ENDBRANCH  14  16
BRANCH  14  20
ATOM     20  O   UNL     1      -6.968 -14.838   5.362  0.00  0.00    +0.000 OA
ATOM     21  H   UNL     1      -7.612 -15.322   5.906  0.00  0.00    +0.000 HD
ENDBRANCH  14  20
ENDBRANCH   1  14
TORSDOF 7
ENDMDL
MODEL 8
REMARK VINA RESULT:    -3.120     25.783     26.382
REMARK INTER + INTRA:          -4.649
REMARK INTER:                  -4.123
REMARK INTRA:                  -0.525
REMARK UNBOUND:                -0.525
REMARK  Name = 62572
REMARK  7 active torsions:
REMARK  status: ('A' for Active; 'I' for Inactive)
REMARK    1  A    between atoms: O_1  and  C_7
REMARK    2  A    between atoms: O_1  and  C_8
REMARK    3  A    between atoms: O_2  and  C_4
REMARK    4  A    between atoms: C_4  and  C_5
REMARK    5  A    between atoms: C_4  and  C_6
REMARK    6  A    between atoms: C_5  and  C_7
REMARK    7  A    between atoms: C_8  and  C_9
REMARK                            x       y       z     vdW  Elec       q    Type
REMARK                         _______ _______ _______ _____ _____    ______ ____
ROOT
ATOM      1  C   UNL     1       8.221  13.870  -7.037  0.00  0.00    +0.000 C 
ATOM      2  H   UNL     1       8.762  14.774  -6.729  0.00  0.00    +0.000 HD
ATOM      3  H   UNL     1       7.829  14.022  -8.048  0.00  0.00    +0.000 HD
ENDROOT
BRANCH   1   5
ATOM      4  O   UNL     1       5.984  13.164  -6.384  0.00  0.00    +0.000 OA
ATOM      5  C   UNL     1       7.048  13.694  -6.096  0.00  0.00    +0.000 C 
BRANCH   5   6
ATOM      6  O   UNL     1       7.374  14.226  -4.880  0.00  0.00    +0.000 OA
BRANCH   6   7
ATOM      7  C   UNL     1       7.120  13.384  -3.751  0.00  0.00    +0.000 C 
ATOM      8  H   UNL     1       6.480  12.548  -4.056  0.00  0.00    +0.000 HD
ATOM      9  H   UNL     1       8.069  12.994  -3.366  0.00  0.00    +0.000 HD
BRANCH   7  10
ATOM     10  C   UNL     1       6.426  14.195  -2.678  0.00  0.00    +0.000 C 
ATOM     11  H   UNL     1       5.455  14.555  -3.027  0.00  0.00    +0.000 HD
ATOM     12  H   UNL     1       6.275  13.591  -1.776  0.00  0.00    +0.000 HD
ATOM     13  H   UNL     1       7.039  15.054  -2.387  0.00  0.00    +0.000 HD
ENDBRANCH   7  10
ENDBRANCH   6   7
ENDBRANCH   5   6
ENDBRANCH   1   5
BRANCH   1  14
ATOM     14  C   UNL     1       9.185  12.683  -6.995  0.00  0.00    +0.000 C 
ATOM     15  H   UNL     1       9.360  12.286  -8.001  0.00  0.00    +0.000 HD
BRANCH  14  16
ATOM     16  C   UNL     1      10.515  13.079  -6.366  0.00  0.00    +0.000 C 
ATOM     17  H   UNL     1      10.475  12.947  -5.279  0.00  0.00    +0.000 HD
ATOM     18  H   UNL     1      10.737  14.136  -6.546  0.00  0.00    +0.000 HD
ATOM     19  H   UNL     1      11.337  12.473  -6.760  0.00  0.00    +0.000 HD
ENDBRANCH  14  16
BRANCH  14  20
ATOM     20  O   UNL     1       8.600  11.648  -6.209  0.00  0.00    +0.000 OA
ATOM     21  H   UNL     1       7.644  11.644  -6.384  0.00  0.00    +0.000 HD
ENDBRANCH  14  20
ENDBRANCH   1  14
TORSDOF 7
ENDMDL
MODEL 9
REMARK VINA RESULT:    -3.118     24.609     25.206
REMARK INTER + INTRA:          -4.646
REMARK INTER:                  -4.334
REMARK INTRA:                  -0.312
REMARK UNBOUND:                -0.525
REMARK  Name = 62572
REMARK  7 active torsions:
REMARK  status: ('A' for Active; 'I' for Inactive)
REMARK    1  A    between atoms: O_1  and  C_7
REMARK    2  A    between atoms: O_1  and  C_8
REMARK    3  A    between atoms: O_2  and  C_4
REMARK    4  A    between atoms: C_4  and  C_5
REMARK    5  A    between atoms: C_4  and  C_6
REMARK    6  A    between atoms: C_5  and  C_7
REMARK    7  A    between atoms: C_8  and  C_9
REMARK                            x       y       z     vdW  Elec       q    Type
REMARK                         _______ _______ _______ _____ _____    ______ ____
ROOT
ATOM      1  C   UNL     1       8.463  12.905  -4.194  0.00  0.00    +0.000 C 
ATOM      2  H   UNL     1       8.804  13.946  -4.124  0.00  0.00    +0.000 HD
ATOM      3  H   UNL     1       7.516  12.882  -4.742  0.00  0.00    +0.000 HD
ENDROOT
BRANCH   1   5
ATOM      4  O   UNL     1       8.887  11.579  -2.196  0.00  0.00    +0.000 OA
ATOM      5  C   UNL     1       8.209  12.408  -2.787  0.00  0.00    +0.000 C 
BRANCH   5   6
ATOM      6  O   UNL     1       7.101  13.035  -2.292  0.00  0.00    +0.000 OA
BRANCH   6   7
ATOM      7  C   UNL     1       7.114  13.290  -0.883  0.00  0.00    +0.000 C 
ATOM      8  H   UNL     1       8.109  13.066  -0.482  0.00  0.00    +0.000 HD
ATOM      9  H   UNL     1       6.878  14.344  -0.701  0.00  0.00    +0.000 HD
BRANCH   7  10
ATOM     10  C   UNL     1       6.082  12.409  -0.213  0.00  0.00    +0.000 C 
ATOM     11  H   UNL     1       5.786  12.821   0.756  0.00  0.00    +0.000 HD
ATOM     12  H   UNL     1       5.191  12.313  -0.843  0.00  0.00    +0.000 HD
ATOM     13  H   UNL     1       6.476  11.399  -0.063  0.00  0.00    +0.000 HD
ENDBRANCH   7  10
ENDBRANCH   6   7
ENDBRANCH   5   6
ENDBRANCH   1   5
BRANCH   1  14
ATOM     14  C   UNL     1       9.535  12.087  -4.917  0.00  0.00    +0.000 C 
ATOM     15  H   UNL     1       9.366  11.013  -4.778  0.00  0.00    +0.000 HD
BRANCH  14  16
ATOM     16  C   UNL     1       9.560  12.409  -6.406  0.00  0.00    +0.000 C 
ATOM     17  H   UNL     1       9.519  11.486  -6.995  0.00  0.00    +0.000 HD
ATOM     18  H   UNL     1      10.490  12.917  -6.683  0.00  0.00    +0.000 HD
ATOM     19  H   UNL     1       8.714  13.043  -6.690  0.00  0.00    +0.000 HD
ENDBRANCH  14  16
BRANCH  14  20
ATOM     20  O   UNL     1      10.807  12.408  -4.361  0.00  0.00    +0.000 OA
ATOM     21  H   UNL     1      11.068  11.681  -3.771  0.00  0.00    +0.000 HD
ENDBRANCH  14  20
ENDBRANCH   1  14
TORSDOF 7
ENDMDL
MODEL 10
REMARK VINA RESULT:    -3.112     27.188     29.528
REMARK INTER + INTRA:          -4.638
REMARK INTER:                  -4.175
REMARK INTRA:                  -0.463
REMARK UNBOUND:                -0.525
REMARK  Name = 62572
REMARK  7 active torsions:
REMARK  status: ('A' for Active; 'I' for Inactive)
REMARK    1  A    between atoms: O_1  and  C_7
REMARK    2  A    between atoms: O_1  and  C_8
REMARK    3  A    between atoms: O_2  and  C_4
REMARK    4  A    between atoms: C_4  and  C_5
REMARK    5  A    between atoms: C_4  and  C_6
REMARK    6  A    between atoms: C_5  and  C_7
REMARK    7  A    between atoms: C_8  and  C_9
REMARK                            x       y       z     vdW  Elec       q    Type
REMARK                         _______ _______ _______ _____ _____    ______ ____
ROOT
ATOM      1  C   UNL     1     -21.213  -2.453  10.167  0.00  0.00    +0.000 C 
ATOM      2  H   UNL     1     -21.338  -3.155  11.002  0.00  0.00    +0.000 HD
ATOM      3  H   UNL     1     -21.309  -3.005   9.227  0.00  0.00    +0.000 HD
ENDROOT
BRANCH   1   5
ATOM      4  O   UNL     1     -19.115  -1.859  11.252  0.00  0.00    +0.000 OA
ATOM      5  C   UNL     1     -19.809  -1.891  10.245  0.00  0.00    +0.000 C 
BRANCH   5   6
ATOM      6  O   UNL     1     -19.451  -1.428   9.010  0.00  0.00    +0.000 OA
BRANCH   6   7
ATOM      7  C   UNL     1     -18.169  -1.857   8.539  0.00  0.00    +0.000 C 
ATOM      8  H   UNL     1     -17.422  -1.708   9.326  0.00  0.00    +0.000 HD
ATOM      9  H   UNL     1     -18.214  -2.920   8.277  0.00  0.00    +0.000 HD
BRANCH   7  10
ATOM     10  C   UNL     1     -17.795  -1.044   7.319  0.00  0.00    +0.000 C 
ATOM     11  H   UNL     1     -16.712  -0.904   7.258  0.00  0.00    +0.000 HD
ATOM     12  H   UNL     1     -18.139  -1.540   6.405  0.00  0.00    +0.000 HD
ATOM     13  H   UNL     1     -18.277  -0.061   7.347  0.00  0.00    +0.000 HD
ENDBRANCH   7  10
ENDBRANCH   6   7
ENDBRANCH   5   6
ENDBRANCH   1   5
BRANCH   1  14
ATOM     14  C   UNL     1     -22.283  -1.365  10.276  0.00  0.00    +0.000 C 
ATOM     15  H   UNL     1     -22.949  -1.383   9.407  0.00  0.00    +0.000 HD
BRANCH  14  16
ATOM     16  C   UNL     1     -23.104  -1.529  11.550  0.00  0.00    +0.000 C 
ATOM     17  H   UNL     1     -22.619  -1.009  12.383  0.00  0.00    +0.000 HD
ATOM     18  H   UNL     1     -23.178  -2.583  11.838  0.00  0.00    +0.000 HD
ATOM     19  H   UNL     1     -24.113  -1.125  11.427  0.00  0.00    +0.000 HD
ENDBRANCH  14  16
BRANCH  14  20
ATOM     20  O   UNL     1     -21.639  -0.094  10.311  0.00  0.00    +0.000 OA
ATOM     21  H   UNL     1     -21.966   0.385  11.091  0.00  0.00    +0.000 HD
ENDBRANCH  14  20
ENDBRANCH   1  14
TORSDOF 7
ENDMDL
