MODEL 1
REMARK VINA RESULT:    -3.925      0.000      0.000
REMARK INTER + INTRA:          -5.213
REMARK INTER:                  -5.111
REMARK INTRA:                  -0.102
REMARK UNBOUND:                -0.140
REMARK  Name = 7762
REMARK  6 active torsions:
REMARK  status: ('A' for Active; 'I' for Inactive)
REMARK    1  A    between atoms: O_1  and  C_6
REMARK    2  A    between atoms: O_1  and  C_7
REMARK    3  A    between atoms: C_3  and  C_4
REMARK    4  A    between atoms: C_3  and  C_5
REMARK    5  A    between atoms: C_4  and  C_6
REMARK    6  A    between atoms: C_7  and  C_8
REMARK                            x       y       z     vdW  Elec       q    Type
REMARK                         _______ _______ _______ _____ _____    ______ ____
ROOT
ATOM      1  C   UNL     1       1.346  -3.438  15.263  0.00  0.00    +0.000 C 
ATOM      2  H   UNL     1       1.265  -3.043  14.244  0.00  0.00    +0.000 HD
ATOM      3  H   UNL     1       0.661  -2.885  15.916  0.00  0.00    +0.000 HD
ENDROOT
BRANCH   1   4
ATOM      4  C   UNL     1       2.778  -3.276  15.767  0.00  0.00    +0.000 C 
ATOM      5  H   UNL     1       2.782  -2.701  16.701  0.00  0.00    +0.000 HD
ATOM      6  H   UNL     1       3.207  -4.258  15.999  0.00  0.00    +0.000 HD
BRANCH   4   7
ATOM      7  C   UNL     1       3.656  -2.578  14.742  0.00  0.00    +0.000 C 
ATOM      8  H   UNL     1       3.099  -1.774  14.250  0.00  0.00    +0.000 HD
ATOM      9  H   UNL     1       4.540  -2.138  15.215  0.00  0.00    +0.000 HD
ATOM     10  H   UNL     1       3.991  -3.279  13.971  0.00  0.00    +0.000 HD
ENDBRANCH   4   7
ENDBRANCH   1   4
BRANCH   1  12
ATOM     11  O   UNL     1       1.265  -5.714  14.410  0.00  0.00    +0.000 OA
ATOM     12  C   UNL     1       0.914  -4.887  15.240  0.00  0.00    +0.000 C 
BRANCH  12  13
ATOM     13  O   UNL     1       0.076  -5.115  16.294  0.00  0.00    +0.000 OA
BRANCH  13  14
ATOM     14  C   UNL     1      -0.596  -6.379  16.284  0.00  0.00    +0.000 C 
ATOM     15  H   UNL     1      -1.676  -6.219  16.209  0.00  0.00    +0.000 HD
ATOM     16  H   UNL     1      -0.254  -6.966  15.425  0.00  0.00    +0.000 HD
BRANCH  14  17
ATOM     17  C   UNL     1      -0.275  -7.117  17.567  0.00  0.00    +0.000 C 
ATOM     18  H   UNL     1      -0.527  -6.509  18.440  0.00  0.00    +0.000 HD
ATOM     19  H   UNL     1      -0.831  -8.058  17.619  0.00  0.00    +0.000 HD
ATOM     20  H   UNL     1       0.789  -7.373  17.608  0.00  0.00    +0.000 HD
ENDBRANCH  14  17
ENDBRANCH  13  14
ENDBRANCH  12  13
ENDBRANCH   1  12
TORSDOF 6
ENDMDL
MODEL 2
REMARK VINA RESULT:    -3.700     16.706     18.112
REMARK INTER + INTRA:          -4.922
REMARK INTER:                  -4.653
REMARK INTRA:                  -0.269
REMARK UNBOUND:                -0.140
REMARK  Name = 7762
REMARK  6 active torsions:
REMARK  status: ('A' for Active; 'I' for Inactive)
REMARK    1  A    between atoms: O_1  and  C_6
REMARK    2  A    between atoms: O_1  and  C_7
REMARK    3  A    between atoms: C_3  and  C_4
REMARK    4  A    between atoms: C_3  and  C_5
REMARK    5  A    between atoms: C_4  and  C_6
REMARK    6  A    between atoms: C_7  and  C_8
REMARK                            x       y       z     vdW  Elec       q    Type
REMARK                         _______ _______ _______ _____ _____    ______ ____
ROOT
ATOM      1  C   UNL     1       5.000  -3.208  -2.281  0.00  0.00    +0.000 C 
ATOM      2  H   UNL     1       5.213  -2.725  -3.242  0.00  0.00    +0.000 HD
ATOM      3  H   UNL     1       4.374  -4.091  -2.457  0.00  0.00    +0.000 HD
ENDROOT
BRANCH   1   4
ATOM      4  C   UNL     1       4.265  -2.232  -1.365  0.00  0.00    +0.000 C 
ATOM      5  H   UNL     1       4.974  -1.515  -0.938  0.00  0.00    +0.000 HD
ATOM      6  H   UNL     1       3.538  -1.651  -1.945  0.00  0.00    +0.000 HD
BRANCH   4   7
ATOM      7  C   UNL     1       3.542  -2.957  -0.242  0.00  0.00    +0.000 C 
ATOM      8  H   UNL     1       4.249  -3.236   0.546  0.00  0.00    +0.000 HD
ATOM      9  H   UNL     1       2.770  -2.320   0.203  0.00  0.00    +0.000 HD
ATOM     10  H   UNL     1       3.064  -3.871  -0.610  0.00  0.00    +0.000 HD
ENDBRANCH   4   7
ENDBRANCH   1   4
BRANCH   1  12
ATOM     11  O   UNL     1       6.458  -4.654  -0.979  0.00  0.00    +0.000 OA
ATOM     12  C   UNL     1       6.311  -3.666  -1.686  0.00  0.00    +0.000 C 
BRANCH  12  13
ATOM     13  O   UNL     1       7.297  -2.801  -2.069  0.00  0.00    +0.000 OA
BRANCH  13  14
ATOM     14  C   UNL     1       8.265  -2.487  -1.063  0.00  0.00    +0.000 C 
ATOM     15  H   UNL     1       8.489  -3.385  -0.478  0.00  0.00    +0.000 HD
ATOM     16  H   UNL     1       9.183  -2.125  -1.540  0.00  0.00    +0.000 HD
BRANCH  14  17
ATOM     17  C   UNL     1       7.702  -1.412  -0.157  0.00  0.00    +0.000 C 
ATOM     18  H   UNL     1       8.441  -1.101   0.586  0.00  0.00    +0.000 HD
ATOM     19  H   UNL     1       7.398  -0.538  -0.741  0.00  0.00    +0.000 HD
ATOM     20  H   UNL     1       6.809  -1.775   0.362  0.00  0.00    +0.000 HD
ENDBRANCH  14  17
ENDBRANCH  13  14
ENDBRANCH  12  13
ENDBRANCH   1  12
TORSDOF 6
ENDMDL
MODEL 3
REMARK VINA RESULT:    -3.669     16.336     17.047
REMARK INTER + INTRA:          -4.882
REMARK INTER:                  -4.605
REMARK INTRA:                  -0.277
REMARK UNBOUND:                -0.140
REMARK  Name = 7762
REMARK  6 active torsions:
REMARK  status: ('A' for Active; 'I' for Inactive)
REMARK    1  A    between atoms: O_1  and  C_6
REMARK    2  A    between atoms: O_1  and  C_7
REMARK    3  A    between atoms: C_3  and  C_4
REMARK    4  A    between atoms: C_3  and  C_5
REMARK    5  A    between atoms: C_4  and  C_6
REMARK    6  A    between atoms: C_7  and  C_8
REMARK                            x       y       z     vdW  Elec       q    Type
REMARK                         _______ _______ _______ _____ _____    ______ ____
ROOT
ATOM      1  C   UNL     1       5.028 -13.563   0.479  0.00  0.00    +0.000 C 
ATOM      2  H   UNL     1       5.578 -14.512   0.465  0.00  0.00    +0.000 HD
ATOM      3  H   UNL     1       3.997 -13.754   0.800  0.00  0.00    +0.000 HD
ENDROOT
BRANCH   1   4
ATOM      4  C   UNL     1       5.025 -12.947  -0.918  0.00  0.00    +0.000 C 
ATOM      5  H   UNL     1       6.053 -12.742  -1.237  0.00  0.00    +0.000 HD
ATOM      6  H   UNL     1       4.606 -13.658  -1.639  0.00  0.00    +0.000 HD
BRANCH   4   7
ATOM      7  C   UNL     1       4.218 -11.660  -0.959  0.00  0.00    +0.000 C 
ATOM      8  H   UNL     1       4.358 -11.095  -0.032  0.00  0.00    +0.000 HD
ATOM      9  H   UNL     1       4.533 -11.026  -1.794  0.00  0.00    +0.000 HD
ATOM     10  H   UNL     1       3.150 -11.871  -1.072  0.00  0.00    +0.000 HD
ENDBRANCH   4   7
ENDBRANCH   1   4
BRANCH   1  12
ATOM     11  O   UNL     1       6.845 -12.281   1.462  0.00  0.00    +0.000 OA
ATOM     12  C   UNL     1       5.682 -12.658   1.498  0.00  0.00    +0.000 C 
BRANCH  12  13
ATOM     13  O   UNL     1       4.762 -12.331   2.454  0.00  0.00    +0.000 OA
BRANCH  13  14
ATOM     14  C   UNL     1       3.673 -13.249   2.599  0.00  0.00    +0.000 C 
ATOM     15  H   UNL     1       3.558 -13.829   1.677  0.00  0.00    +0.000 HD
ATOM     16  H   UNL     1       3.878 -13.929   3.433  0.00  0.00    +0.000 HD
BRANCH  14  17
ATOM     17  C   UNL     1       2.405 -12.469   2.875  0.00  0.00    +0.000 C 
ATOM     18  H   UNL     1       2.636 -11.462   3.230  0.00  0.00    +0.000 HD
ATOM     19  H   UNL     1       1.794 -12.395   1.970  0.00  0.00    +0.000 HD
ATOM     20  H   UNL     1       1.796 -12.979   3.629  0.00  0.00    +0.000 HD
ENDBRANCH  14  17
ENDBRANCH  13  14
ENDBRANCH  12  13
ENDBRANCH   1  12
TORSDOF 6
ENDMDL
MODEL 4
REMARK VINA RESULT:    -3.663      1.955      2.684
REMARK INTER + INTRA:          -4.874
REMARK INTER:                  -4.773
REMARK INTRA:                  -0.101
REMARK UNBOUND:                -0.140
REMARK  Name = 7762
REMARK  6 active torsions:
REMARK  status: ('A' for Active; 'I' for Inactive)
REMARK    1  A    between atoms: O_1  and  C_6
REMARK    2  A    between atoms: O_1  and  C_7
REMARK    3  A    between atoms: C_3  and  C_4
REMARK    4  A    between atoms: C_3  and  C_5
REMARK    5  A    between atoms: C_4  and  C_6
REMARK    6  A    between atoms: C_7  and  C_8
REMARK                            x       y       z     vdW  Elec       q    Type
REMARK                         _______ _______ _______ _____ _____    ______ ____
ROOT
ATOM      1  C   UNL     1       1.942  -4.204  15.719  0.00  0.00    +0.000 C 
ATOM      2  H   UNL     1       1.363  -3.936  16.610  0.00  0.00    +0.000 HD
ATOM      3  H   UNL     1       2.913  -4.605  16.031  0.00  0.00    +0.000 HD
ENDROOT
BRANCH   1   4
ATOM      4  C   UNL     1       2.154  -2.966  14.851  0.00  0.00    +0.000 C 
ATOM      5  H   UNL     1       1.745  -3.138  13.849  0.00  0.00    +0.000 HD
ATOM      6  H   UNL     1       1.606  -2.115  15.273  0.00  0.00    +0.000 HD
BRANCH   4   7
ATOM      7  C   UNL     1       3.626  -2.606  14.740  0.00  0.00    +0.000 C 
ATOM      8  H   UNL     1       4.202  -3.126  15.511  0.00  0.00    +0.000 HD
ATOM      9  H   UNL     1       4.028  -2.894  13.763  0.00  0.00    +0.000 HD
ATOM     10  H   UNL     1       3.777  -1.530  14.870  0.00  0.00    +0.000 HD
ENDBRANCH   4   7
ENDBRANCH   1   4
BRANCH   1  12
ATOM     11  O   UNL     1       0.022  -5.589  15.166  0.00  0.00    +0.000 OA
ATOM     12  C   UNL     1       1.194  -5.292  14.983  0.00  0.00    +0.000 C 
BRANCH  12  13
ATOM     13  O   UNL     1       2.039  -5.879  14.084  0.00  0.00    +0.000 OA
BRANCH  13  14
ATOM     14  C   UNL     1       2.484  -7.196  14.427  0.00  0.00    +0.000 C 
ATOM     15  H   UNL     1       3.366  -7.127  15.072  0.00  0.00    +0.000 HD
ATOM     16  H   UNL     1       1.684  -7.724  14.958  0.00  0.00    +0.000 HD
BRANCH  14  17
ATOM     17  C   UNL     1       2.835  -7.943  13.157  0.00  0.00    +0.000 C 
ATOM     18  H   UNL     1       3.463  -8.810  13.376  0.00  0.00    +0.000 HD
ATOM     19  H   UNL     1       1.927  -8.282  12.647  0.00  0.00    +0.000 HD
ATOM     20  H   UNL     1       3.365  -7.287  12.459  0.00  0.00    +0.000 HD
ENDBRANCH  14  17
ENDBRANCH  13  14
ENDBRANCH  12  13
ENDBRANCH   1  12
TORSDOF 6
ENDMDL
MODEL 5
REMARK VINA RESULT:    -3.613     16.489     17.164
REMARK INTER + INTRA:          -4.810
REMARK INTER:                  -4.649
REMARK INTRA:                  -0.160
REMARK UNBOUND:                -0.140
REMARK  Name = 7762
REMARK  6 active torsions:
REMARK  status: ('A' for Active; 'I' for Inactive)
REMARK    1  A    between atoms: O_1  and  C_6
REMARK    2  A    between atoms: O_1  and  C_7
REMARK    3  A    between atoms: C_3  and  C_4
REMARK    4  A    between atoms: C_3  and  C_5
REMARK    5  A    between atoms: C_4  and  C_6
REMARK    6  A    between atoms: C_7  and  C_8
REMARK                            x       y       z     vdW  Elec       q    Type
REMARK                         _______ _______ _______ _____ _____    ______ ____
ROOT
ATOM      1  C   UNL     1       4.319 -11.790  -0.934  0.00  0.00    +0.000 C 
ATOM      2  H   UNL     1       3.782 -11.731  -1.888  0.00  0.00    +0.000 HD
ATOM      3  H   UNL     1       5.125 -11.047  -0.932  0.00  0.00    +0.000 HD
ENDROOT
BRANCH   1   4
ATOM      4  C   UNL     1       4.908 -13.188  -0.760  0.00  0.00    +0.000 C 
ATOM      5  H   UNL     1       4.571 -13.619   0.189  0.00  0.00    +0.000 HD
ATOM      6  H   UNL     1       4.543 -13.850  -1.555  0.00  0.00    +0.000 HD
BRANCH   4   7
ATOM      7  C   UNL     1       6.427 -13.161  -0.791  0.00  0.00    +0.000 C 
ATOM      8  H   UNL     1       6.793 -13.535  -1.753  0.00  0.00    +0.000 HD
ATOM      9  H   UNL     1       6.805 -12.143  -0.657  0.00  0.00    +0.000 HD
ATOM     10  H   UNL     1       6.846 -13.791   0.000  0.00  0.00    +0.000 HD
ENDBRANCH   4   7
ENDBRANCH   1   4
BRANCH   1  12
ATOM     11  O   UNL     1       2.309 -10.816   0.026  0.00  0.00    +0.000 OA
ATOM     12  C   UNL     1       3.350 -11.441   0.172  0.00  0.00    +0.000 C 
BRANCH  12  13
ATOM     13  O   UNL     1       3.826 -11.941   1.351  0.00  0.00    +0.000 OA
BRANCH  13  14
ATOM     14  C   UNL     1       2.944 -11.821   2.472  0.00  0.00    +0.000 C 
ATOM     15  H   UNL     1       3.298 -11.021   3.132  0.00  0.00    +0.000 HD
ATOM     16  H   UNL     1       1.935 -11.580   2.117  0.00  0.00    +0.000 HD
BRANCH  14  17
ATOM     17  C   UNL     1       2.922 -13.134   3.224  0.00  0.00    +0.000 C 
ATOM     18  H   UNL     1       2.328 -13.051   4.138  0.00  0.00    +0.000 HD
ATOM     19  H   UNL     1       2.501 -13.929   2.599  0.00  0.00    +0.000 HD
ATOM     20  H   UNL     1       3.939 -13.444   3.489  0.00  0.00    +0.000 HD
ENDBRANCH  14  17
ENDBRANCH  13  14
ENDBRANCH  12  13
ENDBRANCH   1  12
TORSDOF 6
ENDMDL
MODEL 6
REMARK VINA RESULT:    -3.477     18.057     19.017
REMARK INTER + INTRA:          -4.633
REMARK INTER:                  -4.511
REMARK INTRA:                  -0.122
REMARK UNBOUND:                -0.140
REMARK  Name = 7762
REMARK  6 active torsions:
REMARK  status: ('A' for Active; 'I' for Inactive)
REMARK    1  A    between atoms: O_1  and  C_6
REMARK    2  A    between atoms: O_1  and  C_7
REMARK    3  A    between atoms: C_3  and  C_4
REMARK    4  A    between atoms: C_3  and  C_5
REMARK    5  A    between atoms: C_4  and  C_6
REMARK    6  A    between atoms: C_7  and  C_8
REMARK                            x       y       z     vdW  Elec       q    Type
REMARK                         _______ _______ _______ _____ _____    ______ ____
ROOT
ATOM      1  C   UNL     1       9.872 -10.502  -1.305  0.00  0.00    +0.000 C 
ATOM      2  H   UNL     1      10.513 -11.376  -1.141  0.00  0.00    +0.000 HD
ATOM      3  H   UNL     1       9.282 -10.658  -2.216  0.00  0.00    +0.000 HD
ENDROOT
BRANCH   1   4
ATOM      4  C   UNL     1      10.736  -9.252  -1.461  0.00  0.00    +0.000 C 
ATOM      5  H   UNL     1      10.111  -8.402  -1.756  0.00  0.00    +0.000 HD
ATOM      6  H   UNL     1      11.191  -8.990  -0.498  0.00  0.00    +0.000 HD
BRANCH   4   7
ATOM      7  C   UNL     1      11.832  -9.456  -2.493  0.00  0.00    +0.000 C 
ATOM      8  H   UNL     1      12.187  -8.490  -2.864  0.00  0.00    +0.000 HD
ATOM      9  H   UNL     1      12.685  -9.988  -2.060  0.00  0.00    +0.000 HD
ATOM     10  H   UNL     1      11.464 -10.034  -3.346  0.00  0.00    +0.000 HD
ENDBRANCH   4   7
ENDBRANCH   1   4
BRANCH   1  12
ATOM     11  O   UNL     1       8.588  -9.347   0.406  0.00  0.00    +0.000 OA
ATOM     12  C   UNL     1       8.920 -10.392  -0.136  0.00  0.00    +0.000 C 
BRANCH  12  13
ATOM     13  O   UNL     1       8.495 -11.644   0.207  0.00  0.00    +0.000 OA
BRANCH  13  14
ATOM     14  C   UNL     1       7.152 -11.725   0.697  0.00  0.00    +0.000 C 
ATOM     15  H   UNL     1       7.084 -12.519   1.448  0.00  0.00    +0.000 HD
ATOM     16  H   UNL     1       6.871 -10.769   1.151  0.00  0.00    +0.000 HD
BRANCH  14  17
ATOM     17  C   UNL     1       6.225 -12.034  -0.460  0.00  0.00    +0.000 C 
ATOM     18  H   UNL     1       6.550 -11.521  -1.368  0.00  0.00    +0.000 HD
ATOM     19  H   UNL     1       6.195 -13.111  -0.652  0.00  0.00    +0.000 HD
ATOM     20  H   UNL     1       5.201 -11.724  -0.225  0.00  0.00    +0.000 HD
ENDBRANCH  14  17
ENDBRANCH  13  14
ENDBRANCH  12  13
ENDBRANCH   1  12
TORSDOF 6
ENDMDL
MODEL 7
REMARK VINA RESULT:    -3.382      1.640      4.025
REMARK INTER + INTRA:          -4.510
REMARK INTER:                  -4.222
REMARK INTRA:                  -0.288
REMARK UNBOUND:                -0.140
REMARK  Name = 7762
REMARK  6 active torsions:
REMARK  status: ('A' for Active; 'I' for Inactive)
REMARK    1  A    between atoms: O_1  and  C_6
REMARK    2  A    between atoms: O_1  and  C_7
REMARK    3  A    between atoms: C_3  and  C_4
REMARK    4  A    between atoms: C_3  and  C_5
REMARK    5  A    between atoms: C_4  and  C_6
REMARK    6  A    between atoms: C_7  and  C_8
REMARK                            x       y       z     vdW  Elec       q    Type
REMARK                         _______ _______ _______ _____ _____    ______ ____
ROOT
ATOM      1  C   UNL     1       1.464  -7.136  15.659  0.00  0.00    +0.000 C 
ATOM      2  H   UNL     1       1.569  -8.196  15.398  0.00  0.00    +0.000 HD
ATOM      3  H   UNL     1       1.666  -7.010  16.729  0.00  0.00    +0.000 HD
ENDROOT
BRANCH   1   4
ATOM      4  C   UNL     1       0.045  -6.667  15.346  0.00  0.00    +0.000 C 
ATOM      5  H   UNL     1       0.067  -5.924  14.541  0.00  0.00    +0.000 HD
ATOM      6  H   UNL     1      -0.556  -7.509  14.982  0.00  0.00    +0.000 HD
BRANCH   4   7
ATOM      7  C   UNL     1      -0.627  -6.067  16.569  0.00  0.00    +0.000 C 
ATOM      8  H   UNL     1       0.124  -5.767  17.306  0.00  0.00    +0.000 HD
ATOM      9  H   UNL     1      -1.212  -5.181  16.301  0.00  0.00    +0.000 HD
ATOM     10  H   UNL     1      -1.298  -6.791  17.043  0.00  0.00    +0.000 HD
ENDBRANCH   4   7
ENDBRANCH   1   4
BRANCH   1  12
ATOM     11  O   UNL     1       3.689  -6.647  14.809  0.00  0.00    +0.000 OA
ATOM     12  C   UNL     1       2.503  -6.358  14.885  0.00  0.00    +0.000 C 
BRANCH  12  13
ATOM     13  O   UNL     1       1.898  -5.288  14.286  0.00  0.00    +0.000 OA
BRANCH  13  14
ATOM     14  C   UNL     1       2.543  -4.026  14.486  0.00  0.00    +0.000 C 
ATOM     15  H   UNL     1       3.462  -4.172  15.064  0.00  0.00    +0.000 HD
ATOM     16  H   UNL     1       2.791  -3.585  13.514  0.00  0.00    +0.000 HD
BRANCH  14  17
ATOM     17  C   UNL     1       1.604  -3.107  15.239  0.00  0.00    +0.000 C 
ATOM     18  H   UNL     1       1.824  -3.117  16.310  0.00  0.00    +0.000 HD
ATOM     19  H   UNL     1       1.691  -2.081  14.870  0.00  0.00    +0.000 HD
ATOM     20  H   UNL     1       0.563  -3.412  15.088  0.00  0.00    +0.000 HD
ENDBRANCH  14  17
ENDBRANCH  13  14
ENDBRANCH  12  13
ENDBRANCH   1  12
TORSDOF 6
ENDMDL
MODEL 8
REMARK VINA RESULT:    -3.380     18.047     18.462
REMARK INTER + INTRA:          -4.508
REMARK INTER:                  -4.361
REMARK INTRA:                  -0.148
REMARK UNBOUND:                -0.140
REMARK  Name = 7762
REMARK  6 active torsions:
REMARK  status: ('A' for Active; 'I' for Inactive)
REMARK    1  A    between atoms: O_1  and  C_6
REMARK    2  A    between atoms: O_1  and  C_7
REMARK    3  A    between atoms: C_3  and  C_4
REMARK    4  A    between atoms: C_3  and  C_5
REMARK    5  A    between atoms: C_4  and  C_6
REMARK    6  A    between atoms: C_7  and  C_8
REMARK                            x       y       z     vdW  Elec       q    Type
REMARK                         _______ _______ _______ _____ _____    ______ ____
ROOT
ATOM      1  C   UNL     1       8.358 -11.181  -0.726  0.00  0.00    +0.000 C 
ATOM      2  H   UNL     1       9.318 -11.557  -0.353  0.00  0.00    +0.000 HD
ATOM      3  H   UNL     1       8.263 -11.437  -1.788  0.00  0.00    +0.000 HD
ENDROOT
BRANCH   1   4
ATOM      4  C   UNL     1       8.298  -9.664  -0.557  0.00  0.00    +0.000 C 
ATOM      5  H   UNL     1       7.556  -9.242  -1.245  0.00  0.00    +0.000 HD
ATOM      6  H   UNL     1       7.967  -9.414   0.458  0.00  0.00    +0.000 HD
BRANCH   4   7
ATOM      7  C   UNL     1       9.649  -9.020  -0.815  0.00  0.00    +0.000 C 
ATOM      8  H   UNL     1       9.637  -8.481  -1.768  0.00  0.00    +0.000 HD
ATOM      9  H   UNL     1       9.901  -8.305  -0.024  0.00  0.00    +0.000 HD
ATOM     10  H   UNL     1      10.441  -9.775  -0.861  0.00  0.00    +0.000 HD
ENDBRANCH   4   7
ENDBRANCH   1   4
BRANCH   1  12
ATOM     11  O   UNL     1       7.017 -11.740   1.224  0.00  0.00    +0.000 OA
ATOM     12  C   UNL     1       7.253 -11.880   0.032  0.00  0.00    +0.000 C 
BRANCH  12  13
ATOM     13  O   UNL     1       6.566 -12.686  -0.832  0.00  0.00    +0.000 OA
BRANCH  13  14
ATOM     14  C   UNL     1       5.198 -12.931  -0.488  0.00  0.00    +0.000 C 
ATOM     15  H   UNL     1       4.884 -13.895  -0.903  0.00  0.00    +0.000 HD
ATOM     16  H   UNL     1       5.094 -12.953   0.602  0.00  0.00    +0.000 HD
BRANCH  14  17
ATOM     17  C   UNL     1       4.340 -11.824  -1.062  0.00  0.00    +0.000 C 
ATOM     18  H   UNL     1       3.558 -11.531  -0.356  0.00  0.00    +0.000 HD
ATOM     19  H   UNL     1       4.951 -10.946  -1.297  0.00  0.00    +0.000 HD
ATOM     20  H   UNL     1       3.870 -12.145  -1.997  0.00  0.00    +0.000 HD
ENDBRANCH  14  17
ENDBRANCH  13  14
ENDBRANCH  12  13
ENDBRANCH   1  12
TORSDOF 6
ENDMDL
MODEL 9
REMARK VINA RESULT:    -3.366     18.337     19.708
REMARK INTER + INTRA:          -4.490
REMARK INTER:                  -4.371
REMARK INTRA:                  -0.119
REMARK UNBOUND:                -0.140
REMARK  Name = 7762
REMARK  6 active torsions:
REMARK  status: ('A' for Active; 'I' for Inactive)
REMARK    1  A    between atoms: O_1  and  C_6
REMARK    2  A    between atoms: O_1  and  C_7
REMARK    3  A    between atoms: C_3  and  C_4
REMARK    4  A    between atoms: C_3  and  C_5
REMARK    5  A    between atoms: C_4  and  C_6
REMARK    6  A    between atoms: C_7  and  C_8
REMARK                            x       y       z     vdW  Elec       q    Type
REMARK                         _______ _______ _______ _____ _____    ______ ____
ROOT
ATOM      1  C   UNL     1       8.807 -10.985  -0.865  0.00  0.00    +0.000 C 
ATOM      2  H   UNL     1       8.987 -11.267  -1.909  0.00  0.00    +0.000 HD
ATOM      3  H   UNL     1       9.453 -11.588  -0.216  0.00  0.00    +0.000 HD
ENDROOT
BRANCH   1   4
ATOM      4  C   UNL     1       7.344 -11.235  -0.508  0.00  0.00    +0.000 C 
ATOM      5  H   UNL     1       6.823 -10.279  -0.379  0.00  0.00    +0.000 HD
ATOM      6  H   UNL     1       6.843 -11.759  -1.330  0.00  0.00    +0.000 HD
BRANCH   4   7
ATOM      7  C   UNL     1       7.212 -12.057   0.763  0.00  0.00    +0.000 C 
ATOM      8  H   UNL     1       8.195 -12.215   1.216  0.00  0.00    +0.000 HD
ATOM      9  H   UNL     1       6.578 -11.547   1.496  0.00  0.00    +0.000 HD
ATOM     10  H   UNL     1       6.772 -13.037   0.551  0.00  0.00    +0.000 HD
ENDBRANCH   4   7
ENDBRANCH   1   4
BRANCH   1  12
ATOM     11  O   UNL     1       8.406  -8.609  -0.541  0.00  0.00    +0.000 OA
ATOM     12  C   UNL     1       9.192  -9.533  -0.699  0.00  0.00    +0.000 C 
BRANCH  12  13
ATOM     13  O   UNL     1      10.554  -9.428  -0.750  0.00  0.00    +0.000 OA
BRANCH  13  14
ATOM     14  C   UNL     1      11.085  -8.904  -1.972  0.00  0.00    +0.000 C 
ATOM     15  H   UNL     1      10.262  -8.597  -2.627  0.00  0.00    +0.000 HD
ATOM     16  H   UNL     1      11.718  -8.037  -1.753  0.00  0.00    +0.000 HD
BRANCH  14  17
ATOM     17  C   UNL     1      11.907  -9.979  -2.652  0.00  0.00    +0.000 C 
ATOM     18  H   UNL     1      12.906  -9.610  -2.895  0.00  0.00    +0.000 HD
ATOM     19  H   UNL     1      12.000 -10.858  -2.006  0.00  0.00    +0.000 HD
ATOM     20  H   UNL     1      11.418 -10.312  -3.574  0.00  0.00    +0.000 HD
ENDBRANCH  14  17
ENDBRANCH  13  14
ENDBRANCH  12  13
ENDBRANCH   1  12
TORSDOF 6
ENDMDL
MODEL 10
REMARK VINA RESULT:    -3.229     21.098     22.128
REMARK INTER + INTRA:          -4.313
REMARK INTER:                  -4.172
REMARK INTRA:                  -0.140
REMARK UNBOUND:                -0.140
REMARK  Name = 7762
REMARK  6 active torsions:
REMARK  status: ('A' for Active; 'I' for Inactive)
REMARK    1  A    between atoms: O_1  and  C_6
REMARK    2  A    between atoms: O_1  and  C_7
REMARK    3  A    between atoms: C_3  and  C_4
REMARK    4  A    between atoms: C_3  and  C_5
REMARK    5  A    between atoms: C_4  and  C_6
REMARK    6  A    between atoms: C_7  and  C_8
REMARK                            x       y       z     vdW  Elec       q    Type
REMARK                         _______ _______ _______ _____ _____    ______ ____
ROOT
ATOM      1  C   UNL     1     -19.135  -1.518   6.946  0.00  0.00    +0.000 C 
ATOM      2  H   UNL     1     -19.856  -2.336   7.052  0.00  0.00    +0.000 HD
ATOM      3  H   UNL     1     -19.679  -0.585   6.756  0.00  0.00    +0.000 HD
ENDROOT
BRANCH   1   4
ATOM      4  C   UNL     1     -18.192  -1.808   5.780  0.00  0.00    +0.000 C 
ATOM      5  H   UNL     1     -18.278  -1.018   5.025  0.00  0.00    +0.000 HD
ATOM      6  H   UNL     1     -17.152  -1.800   6.129  0.00  0.00    +0.000 HD
BRANCH   4   7
ATOM      7  C   UNL     1     -18.493  -3.153   5.140  0.00  0.00    +0.000 C 
ATOM      8  H   UNL     1     -18.368  -3.093   4.055  0.00  0.00    +0.000 HD
ATOM      9  H   UNL     1     -17.818  -3.928   5.518  0.00  0.00    +0.000 HD
ATOM     10  H   UNL     1     -19.522  -3.464   5.348  0.00  0.00    +0.000 HD
ENDBRANCH   4   7
ENDBRANCH   1   4
BRANCH   1  12
ATOM     11  O   UNL     1     -17.182  -1.232   8.366  0.00  0.00    +0.000 OA
ATOM     12  C   UNL     1     -18.392  -1.375   8.254  0.00  0.00    +0.000 C 
BRANCH  12  13
ATOM     13  O   UNL     1     -19.291  -1.430   9.282  0.00  0.00    +0.000 OA
BRANCH  13  14
ATOM     14  C   UNL     1     -20.666  -1.510   8.892  0.00  0.00    +0.000 C 
ATOM     15  H   UNL     1     -20.790  -1.070   7.896  0.00  0.00    +0.000 HD
ATOM     16  H   UNL     1     -20.978  -2.560   8.867  0.00  0.00    +0.000 HD
BRANCH  14  17
ATOM     17  C   UNL     1     -21.508  -0.750   9.895  0.00  0.00    +0.000 C 
ATOM     18  H   UNL     1     -21.870  -1.414  10.683  0.00  0.00    +0.000 HD
ATOM     19  H   UNL     1     -20.926   0.057  10.352  0.00  0.00    +0.000 HD
ATOM     20  H   UNL     1     -22.367  -0.283   9.402  0.00  0.00    +0.000 HD
ENDBRANCH  14  17
ENDBRANCH  13  14
ENDBRANCH  12  13
ENDBRANCH   1  12
TORSDOF 6
ENDMDL
