MODEL 1
REMARK VINA RESULT:    -4.659      0.000      0.000
REMARK INTER + INTRA:          -8.114
REMARK INTER:                  -7.486
REMARK INTRA:                  -0.629
REMARK UNBOUND:                -0.459
REMARK  Name = 8048
REMARK  12 active torsions:
REMARK  status: ('A' for Active; 'I' for Inactive)
REMARK    1  A    between atoms: O_1  and  C_12
REMARK    2  A    between atoms: O_1  and  C_13
REMARK    3  A    between atoms: C_3  and  C_4
REMARK    4  A    between atoms: C_3  and  C_5
REMARK    5  A    between atoms: C_4  and  C_6
REMARK    6  A    between atoms: C_5  and  C_7
REMARK    7  A    between atoms: C_6  and  C_8
REMARK    8  A    between atoms: C_7  and  C_9
REMARK    9  A    between atoms: C_8  and  C_10
REMARK   10  A    between atoms: C_9  and  C_11
REMARK   11  A    between atoms: C_10  and  C_12
REMARK   12  A    between atoms: C_13  and  C_14
REMARK                            x       y       z     vdW  Elec       q    Type
REMARK                         _______ _______ _______ _____ _____    ______ ____
ROOT
ATOM      1  C   UNL     1       6.779  13.297  -1.627  0.00  0.00    +0.000 C 
ATOM      2  H   UNL     1       6.926  14.381  -1.720  0.00  0.00    +0.000 HD
ATOM      3  H   UNL     1       6.378  12.942  -2.583  0.00  0.00    +0.000 HD
ENDROOT
BRANCH   1   4
ATOM      4  C   UNL     1       5.771  13.012  -0.510  0.00  0.00    +0.000 C 
ATOM      5  H   UNL     1       5.777  13.836   0.212  0.00  0.00    +0.000 HD
ATOM      6  H   UNL     1       4.760  12.958  -0.932  0.00  0.00    +0.000 HD
BRANCH   4   7
ATOM      7  C   UNL     1       6.095  11.699   0.205  0.00  0.00    +0.000 C 
ATOM      8  H   UNL     1       7.163  11.477   0.087  0.00  0.00    +0.000 HD
ATOM      9  H   UNL     1       5.546  10.880  -0.277  0.00  0.00    +0.000 HD
BRANCH   7  10
ATOM     10  C   UNL     1       5.748  11.717   1.696  0.00  0.00    +0.000 C 
ATOM     11  H   UNL     1       6.078  10.776   2.155  0.00  0.00    +0.000 HD
ATOM     12  H   UNL     1       4.656  11.754   1.805  0.00  0.00    +0.000 HD
BRANCH  10  13
ATOM     13  C   UNL     1       6.371  12.891   2.452  0.00  0.00    +0.000 C 
ATOM     14  H   UNL     1       6.218  13.818   1.889  0.00  0.00    +0.000 HD
ATOM     15  H   UNL     1       7.453  12.741   2.543  0.00  0.00    +0.000 HD
BRANCH  13  16
ATOM     16  C   UNL     1       5.763  13.043   3.838  0.00  0.00    +0.000 C 
ATOM     17  H   UNL     1       6.069  13.987   4.300  0.00  0.00    +0.000 HD
ATOM     18  H   UNL     1       6.090  12.225   4.487  0.00  0.00    +0.000 HD
ATOM     19  H   UNL     1       4.669  13.021   3.791  0.00  0.00    +0.000 HD
ENDBRANCH  13  16
ENDBRANCH  10  13
ENDBRANCH   7  10
ENDBRANCH   4   7
ENDBRANCH   1   4
BRANCH   1  20
ATOM     20  C   UNL     1       8.123  12.623  -1.350  0.00  0.00    +0.000 C 
ATOM     21  H   UNL     1       8.878  13.385  -1.116  0.00  0.00    +0.000 HD
ATOM     22  H   UNL     1       8.033  11.977  -0.468  0.00  0.00    +0.000 HD
BRANCH  20  23
ATOM     23  C   UNL     1       8.588  11.795  -2.548  0.00  0.00    +0.000 C 
ATOM     24  H   UNL     1       7.721  11.332  -3.035  0.00  0.00    +0.000 HD
ATOM     25  H   UNL     1       9.229  10.976  -2.197  0.00  0.00    +0.000 HD
BRANCH  23  26
ATOM     26  C   UNL     1       9.349  12.653  -3.552  0.00  0.00    +0.000 C 
ATOM     27  H   UNL     1       9.420  13.682  -3.186  0.00  0.00    +0.000 HD
ATOM     28  H   UNL     1      10.358  12.252  -3.701  0.00  0.00    +0.000 HD
BRANCH  26  30
ATOM     29  O   UNL     1       7.537  13.153  -5.064  0.00  0.00    +0.000 OA
ATOM     30  C   UNL     1       8.644  12.664  -4.885  0.00  0.00    +0.000 C 
BRANCH  30  31
ATOM     31  O   UNL     1       9.431  12.078  -5.832  0.00  0.00    +0.000 OA
BRANCH  31  32
ATOM     32  C   UNL     1      10.442  12.917  -6.398  0.00  0.00    +0.000 C 
ATOM     33  H   UNL     1      11.339  12.322  -6.600  0.00  0.00    +0.000 HD
ATOM     34  H   UNL     1      10.688  13.720  -5.694  0.00  0.00    +0.000 HD
BRANCH  32  35
ATOM     35  C   UNL     1       9.923  13.513  -7.690  0.00  0.00    +0.000 C 
ATOM     36  H   UNL     1      10.647  14.223  -8.105  0.00  0.00    +0.000 HD
ATOM     37  H   UNL     1       9.777  12.731  -8.444  0.00  0.00    +0.000 HD
ATOM     38  H   UNL     1       8.973  14.029  -7.530  0.00  0.00    +0.000 HD
ENDBRANCH  32  35
ENDBRANCH  31  32
ENDBRANCH  30  31
ENDBRANCH  26  30
ENDBRANCH  23  26
ENDBRANCH  20  23
ENDBRANCH   1  20
TORSDOF 12
ENDMDL
MODEL 2
REMARK VINA RESULT:    -4.658     24.591     25.863
REMARK INTER + INTRA:          -8.113
REMARK INTER:                  -7.146
REMARK INTRA:                  -0.967
REMARK UNBOUND:                -0.459
REMARK  Name = 8048
REMARK  12 active torsions:
REMARK  status: ('A' for Active; 'I' for Inactive)
REMARK    1  A    between atoms: O_1  and  C_12
REMARK    2  A    between atoms: O_1  and  C_13
REMARK    3  A    between atoms: C_3  and  C_4
REMARK    4  A    between atoms: C_3  and  C_5
REMARK    5  A    between atoms: C_4  and  C_6
REMARK    6  A    between atoms: C_5  and  C_7
REMARK    7  A    between atoms: C_6  and  C_8
REMARK    8  A    between atoms: C_7  and  C_9
REMARK    9  A    between atoms: C_8  and  C_10
REMARK   10  A    between atoms: C_9  and  C_11
REMARK   11  A    between atoms: C_10  and  C_12
REMARK   12  A    between atoms: C_13  and  C_14
REMARK                            x       y       z     vdW  Elec       q    Type
REMARK                         _______ _______ _______ _____ _____    ______ ____
ROOT
ATOM      1  C   UNL     1      -3.552  -9.281 -10.019  0.00  0.00    +0.000 C 
ATOM      2  H   UNL     1      -2.837  -9.687 -10.745  0.00  0.00    +0.000 HD
ATOM      3  H   UNL     1      -4.379  -8.842 -10.590  0.00  0.00    +0.000 HD
ENDROOT
BRANCH   1   4
ATOM      4  C   UNL     1      -2.872  -8.194  -9.184  0.00  0.00    +0.000 C 
ATOM      5  H   UNL     1      -3.150  -8.309  -8.130  0.00  0.00    +0.000 HD
ATOM      6  H   UNL     1      -1.783  -8.309  -9.246  0.00  0.00    +0.000 HD
BRANCH   4   7
ATOM      7  C   UNL     1      -3.264  -6.796  -9.668  0.00  0.00    +0.000 C 
ATOM      8  H   UNL     1      -2.362  -6.178  -9.756  0.00  0.00    +0.000 HD
ATOM      9  H   UNL     1      -3.903  -6.319  -8.914  0.00  0.00    +0.000 HD
BRANCH   7  10
ATOM     10  C   UNL     1      -4.001  -6.802 -11.010  0.00  0.00    +0.000 C 
ATOM     11  H   UNL     1      -4.933  -6.231 -10.912  0.00  0.00    +0.000 HD
ATOM     12  H   UNL     1      -4.287  -7.834 -11.252  0.00  0.00    +0.000 HD
BRANCH  10  13
ATOM     13  C   UNL     1      -3.176  -6.224 -12.160  0.00  0.00    +0.000 C 
ATOM     14  H   UNL     1      -2.266  -5.757 -11.766  0.00  0.00    +0.000 HD
ATOM     15  H   UNL     1      -3.748  -5.440 -12.670  0.00  0.00    +0.000 HD
BRANCH  13  16
ATOM     16  C   UNL     1      -2.790  -7.302 -13.162  0.00  0.00    +0.000 C 
ATOM     17  H   UNL     1      -2.708  -6.888 -14.172  0.00  0.00    +0.000 HD
ATOM     18  H   UNL     1      -3.547  -8.092 -13.179  0.00  0.00    +0.000 HD
ATOM     19  H   UNL     1      -1.831  -7.757 -12.897  0.00  0.00    +0.000 HD
ENDBRANCH  13  16
ENDBRANCH  10  13
ENDBRANCH   7  10
ENDBRANCH   4   7
ENDBRANCH   1   4
BRANCH   1  20
ATOM     20  C   UNL     1      -4.080 -10.413  -9.137  0.00  0.00    +0.000 C 
ATOM     21  H   UNL     1      -5.150 -10.561  -9.327  0.00  0.00    +0.000 HD
ATOM     22  H   UNL     1      -3.573 -11.349  -9.401  0.00  0.00    +0.000 HD
BRANCH  20  23
ATOM     23  C   UNL     1      -3.863 -10.111  -7.654  0.00  0.00    +0.000 C 
ATOM     24  H   UNL     1      -3.563  -9.062  -7.532  0.00  0.00    +0.000 HD
ATOM     25  H   UNL     1      -3.035 -10.724  -7.275  0.00  0.00    +0.000 HD
BRANCH  23  26
ATOM     26  C   UNL     1      -5.123 -10.386  -6.842  0.00  0.00    +0.000 C 
ATOM     27  H   UNL     1      -5.875 -10.873  -7.472  0.00  0.00    +0.000 HD
ATOM     28  H   UNL     1      -4.889 -11.037  -5.991  0.00  0.00    +0.000 HD
BRANCH  26  30
ATOM     29  O   UNL     1      -5.752  -8.820  -5.117  0.00  0.00    +0.000 OA
ATOM     30  C   UNL     1      -5.705  -9.102  -6.307  0.00  0.00    +0.000 C 
BRANCH  30  31
ATOM     31  O   UNL     1      -6.135  -8.321  -7.339  0.00  0.00    +0.000 OA
BRANCH  31  32
ATOM     32  C   UNL     1      -6.791  -7.108  -6.961  0.00  0.00    +0.000 C 
ATOM     33  H   UNL     1      -6.404  -6.770  -5.993  0.00  0.00    +0.000 HD
ATOM     34  H   UNL     1      -7.869  -7.284  -6.880  0.00  0.00    +0.000 HD
BRANCH  32  35
ATOM     35  C   UNL     1      -6.523  -6.053  -8.014  0.00  0.00    +0.000 C 
ATOM     36  H   UNL     1      -7.352  -5.337  -8.061  0.00  0.00    +0.000 HD
ATOM     37  H   UNL     1      -5.623  -5.480  -7.765  0.00  0.00    +0.000 HD
ATOM     38  H   UNL     1      -6.392  -6.507  -8.999  0.00  0.00    +0.000 HD
ENDBRANCH  32  35
ENDBRANCH  31  32
ENDBRANCH  30  31
ENDBRANCH  26  30
ENDBRANCH  23  26
ENDBRANCH  20  23
ENDBRANCH   1  20
TORSDOF 12
ENDMDL
MODEL 3
REMARK VINA RESULT:    -4.641     25.061     26.268
REMARK INTER + INTRA:          -8.085
REMARK INTER:                  -7.076
REMARK INTRA:                  -1.009
REMARK UNBOUND:                -0.459
REMARK  Name = 8048
REMARK  12 active torsions:
REMARK  status: ('A' for Active; 'I' for Inactive)
REMARK    1  A    between atoms: O_1  and  C_12
REMARK    2  A    between atoms: O_1  and  C_13
REMARK    3  A    between atoms: C_3  and  C_4
REMARK    4  A    between atoms: C_3  and  C_5
REMARK    5  A    between atoms: C_4  and  C_6
REMARK    6  A    between atoms: C_5  and  C_7
REMARK    7  A    between atoms: C_6  and  C_8
REMARK    8  A    between atoms: C_7  and  C_9
REMARK    9  A    between atoms: C_8  and  C_10
REMARK   10  A    between atoms: C_9  and  C_11
REMARK   11  A    between atoms: C_10  and  C_12
REMARK   12  A    between atoms: C_13  and  C_14
REMARK                            x       y       z     vdW  Elec       q    Type
REMARK                         _______ _______ _______ _____ _____    ______ ____
ROOT
ATOM      1  C   UNL     1      -3.298  -8.960 -10.407  0.00  0.00    +0.000 C 
ATOM      2  H   UNL     1      -2.432  -9.308 -10.983  0.00  0.00    +0.000 HD
ATOM      3  H   UNL     1      -4.002  -8.513 -11.118  0.00  0.00    +0.000 HD
ENDROOT
BRANCH   1   4
ATOM      4  C   UNL     1      -2.848  -7.903  -9.395  0.00  0.00    +0.000 C 
ATOM      5  H   UNL     1      -3.052  -8.255  -8.377  0.00  0.00    +0.000 HD
ATOM      6  H   UNL     1      -1.765  -7.754  -9.475  0.00  0.00    +0.000 HD
BRANCH   4   7
ATOM      7  C   UNL     1      -3.564  -6.571  -9.632  0.00  0.00    +0.000 C 
ATOM      8  H   UNL     1      -2.860  -5.856 -10.075  0.00  0.00    +0.000 HD
ATOM      9  H   UNL     1      -3.874  -6.152  -8.666  0.00  0.00    +0.000 HD
BRANCH   7  10
ATOM     10  C   UNL     1      -4.793  -6.693 -10.537  0.00  0.00    +0.000 C 
ATOM     11  H   UNL     1      -4.756  -7.653 -11.068  0.00  0.00    +0.000 HD
ATOM     12  H   UNL     1      -4.748  -5.907 -11.302  0.00  0.00    +0.000 HD
BRANCH  10  13
ATOM     13  C   UNL     1      -6.118  -6.587  -9.780  0.00  0.00    +0.000 C 
ATOM     14  H   UNL     1      -6.597  -7.572  -9.733  0.00  0.00    +0.000 HD
ATOM     15  H   UNL     1      -6.800  -5.920 -10.319  0.00  0.00    +0.000 HD
BRANCH  13  16
ATOM     16  C   UNL     1      -5.909  -6.065  -8.367  0.00  0.00    +0.000 C 
ATOM     17  H   UNL     1      -6.551  -5.202  -8.169  0.00  0.00    +0.000 HD
ATOM     18  H   UNL     1      -4.869  -5.754  -8.228  0.00  0.00    +0.000 HD
ATOM     19  H   UNL     1      -6.132  -6.839  -7.626  0.00  0.00    +0.000 HD
ENDBRANCH  13  16
ENDBRANCH  10  13
ENDBRANCH   7  10
ENDBRANCH   4   7
ENDBRANCH   1   4
BRANCH   1  20
ATOM     20  C   UNL     1      -3.958 -10.151  -9.711  0.00  0.00    +0.000 C 
ATOM     21  H   UNL     1      -4.995 -10.252 -10.055  0.00  0.00    +0.000 HD
ATOM     22  H   UNL     1      -3.435 -11.074  -9.990  0.00  0.00    +0.000 HD
BRANCH  20  23
ATOM     23  C   UNL     1      -3.939  -9.989  -8.191  0.00  0.00    +0.000 C 
ATOM     24  H   UNL     1      -4.532  -9.111  -7.907  0.00  0.00    +0.000 HD
ATOM     25  H   UNL     1      -2.910  -9.798  -7.858  0.00  0.00    +0.000 HD
BRANCH  23  26
ATOM     26  C   UNL     1      -4.485 -11.230  -7.494  0.00  0.00    +0.000 C 
ATOM     27  H   UNL     1      -5.165 -11.766  -8.164  0.00  0.00    +0.000 HD
ATOM     28  H   UNL     1      -3.662 -11.894  -7.207  0.00  0.00    +0.000 HD
BRANCH  26  30
ATOM     29  O   UNL     1      -5.807 -11.659  -5.521  0.00  0.00    +0.000 OA
ATOM     30  C   UNL     1      -5.241 -10.850  -6.246  0.00  0.00    +0.000 C 
BRANCH  30  31
ATOM     31  O   UNL     1      -5.173  -9.502  -6.052  0.00  0.00    +0.000 OA
BRANCH  31  32
ATOM     32  C   UNL     1      -6.161  -8.957  -5.173  0.00  0.00    +0.000 C 
ATOM     33  H   UNL     1      -5.735  -8.106  -4.628  0.00  0.00    +0.000 HD
ATOM     34  H   UNL     1      -6.479  -9.724  -4.459  0.00  0.00    +0.000 HD
BRANCH  32  35
ATOM     35  C   UNL     1      -7.349  -8.496  -5.990  0.00  0.00    +0.000 C 
ATOM     36  H   UNL     1      -7.050  -7.714  -6.698  0.00  0.00    +0.000 HD
ATOM     37  H   UNL     1      -7.753  -9.323  -6.583  0.00  0.00    +0.000 HD
ATOM     38  H   UNL     1      -8.140  -8.105  -5.346  0.00  0.00    +0.000 HD
ENDBRANCH  32  35
ENDBRANCH  31  32
ENDBRANCH  30  31
ENDBRANCH  26  30
ENDBRANCH  23  26
ENDBRANCH  20  23
ENDBRANCH   1  20
TORSDOF 12
ENDMDL
MODEL 4
REMARK VINA RESULT:    -4.631     25.509     26.766
REMARK INTER + INTRA:          -8.069
REMARK INTER:                  -7.156
REMARK INTRA:                  -0.913
REMARK UNBOUND:                -0.459
REMARK  Name = 8048
REMARK  12 active torsions:
REMARK  status: ('A' for Active; 'I' for Inactive)
REMARK    1  A    between atoms: O_1  and  C_12
REMARK    2  A    between atoms: O_1  and  C_13
REMARK    3  A    between atoms: C_3  and  C_4
REMARK    4  A    between atoms: C_3  and  C_5
REMARK    5  A    between atoms: C_4  and  C_6
REMARK    6  A    between atoms: C_5  and  C_7
REMARK    7  A    between atoms: C_6  and  C_8
REMARK    8  A    between atoms: C_7  and  C_9
REMARK    9  A    between atoms: C_8  and  C_10
REMARK   10  A    between atoms: C_9  and  C_11
REMARK   11  A    between atoms: C_10  and  C_12
REMARK   12  A    between atoms: C_13  and  C_14
REMARK                            x       y       z     vdW  Elec       q    Type
REMARK                         _______ _______ _______ _____ _____    ______ ____
ROOT
ATOM      1  C   UNL     1       2.599 -11.508   1.778  0.00  0.00    +0.000 C 
ATOM      2  H   UNL     1       2.787 -10.645   2.428  0.00  0.00    +0.000 HD
ATOM      3  H   UNL     1       1.884 -11.186   1.012  0.00  0.00    +0.000 HD
ENDROOT
BRANCH   1   4
ATOM      4  C   UNL     1       1.990 -12.645   2.602  0.00  0.00    +0.000 C 
ATOM      5  H   UNL     1       1.123 -12.274   3.161  0.00  0.00    +0.000 HD
ATOM      6  H   UNL     1       1.630 -13.434   1.931  0.00  0.00    +0.000 HD
BRANCH   4   7
ATOM      7  C   UNL     1       3.014 -13.233   3.575  0.00  0.00    +0.000 C 
ATOM      8  H   UNL     1       2.701 -13.017   4.604  0.00  0.00    +0.000 HD
ATOM      9  H   UNL     1       3.981 -12.735   3.427  0.00  0.00    +0.000 HD
BRANCH   7  10
ATOM     10  C   UNL     1       3.207 -14.744   3.416  0.00  0.00    +0.000 C 
ATOM     11  H   UNL     1       3.374 -15.192   4.404  0.00  0.00    +0.000 HD
ATOM     12  H   UNL     1       4.117 -14.925   2.830  0.00  0.00    +0.000 HD
BRANCH  10  13
ATOM     13  C   UNL     1       2.024 -15.441   2.742  0.00  0.00    +0.000 C 
ATOM     14  H   UNL     1       1.551 -14.759   2.027  0.00  0.00    +0.000 HD
ATOM     15  H   UNL     1       1.269 -15.700   3.493  0.00  0.00    +0.000 HD
BRANCH  13  16
ATOM     16  C   UNL     1       2.466 -16.701   2.013  0.00  0.00    +0.000 C 
ATOM     17  H   UNL     1       1.872 -16.858   1.107  0.00  0.00    +0.000 HD
ATOM     18  H   UNL     1       2.341 -17.575   2.658  0.00  0.00    +0.000 HD
ATOM     19  H   UNL     1       3.521 -16.639   1.727  0.00  0.00    +0.000 HD
ENDBRANCH  13  16
ENDBRANCH  10  13
ENDBRANCH   7  10
ENDBRANCH   4   7
ENDBRANCH   1   4
BRANCH   1  20
ATOM     20  C   UNL     1       3.906 -11.940   1.113  0.00  0.00    +0.000 C 
ATOM     21  H   UNL     1       4.751 -11.431   1.594  0.00  0.00    +0.000 HD
ATOM     22  H   UNL     1       4.053 -13.017   1.260  0.00  0.00    +0.000 HD
BRANCH  20  23
ATOM     23  C   UNL     1       3.903 -11.620  -0.382  0.00  0.00    +0.000 C 
ATOM     24  H   UNL     1       4.324 -10.620  -0.546  0.00  0.00    +0.000 HD
ATOM     25  H   UNL     1       2.867 -11.592  -0.745  0.00  0.00    +0.000 HD
BRANCH  23  26
ATOM     26  C   UNL     1       4.699 -12.652  -1.172  0.00  0.00    +0.000 C 
ATOM     27  H   UNL     1       4.286 -13.652  -1.002  0.00  0.00    +0.000 HD
ATOM     28  H   UNL     1       4.656 -12.422  -2.243  0.00  0.00    +0.000 HD
BRANCH  26  30
ATOM     29  O   UNL     1       6.805 -11.634  -0.583  0.00  0.00    +0.000 OA
ATOM     30  C   UNL     1       6.145 -12.651  -0.746  0.00  0.00    +0.000 C 
BRANCH  30  31
ATOM     31  O   UNL     1       6.575 -13.931  -0.556  0.00  0.00    +0.000 OA
BRANCH  31  32
ATOM     32  C   UNL     1       6.719 -14.336   0.808  0.00  0.00    +0.000 C 
ATOM     33  H   UNL     1       6.326 -13.552   1.465  0.00  0.00    +0.000 HD
ATOM     34  H   UNL     1       7.779 -14.500   1.031  0.00  0.00    +0.000 HD
BRANCH  32  35
ATOM     35  C   UNL     1       5.947 -15.620   1.026  0.00  0.00    +0.000 C 
ATOM     36  H   UNL     1       5.338 -15.857   0.146  0.00  0.00    +0.000 HD
ATOM     37  H   UNL     1       6.632 -16.462   1.174  0.00  0.00    +0.000 HD
ATOM     38  H   UNL     1       5.292 -15.540   1.897  0.00  0.00    +0.000 HD
ENDBRANCH  32  35
ENDBRANCH  31  32
ENDBRANCH  30  31
ENDBRANCH  26  30
ENDBRANCH  23  26
ENDBRANCH  20  23
ENDBRANCH   1  20
TORSDOF 12
ENDMDL
MODEL 5
REMARK VINA RESULT:    -4.617     24.991     26.149
REMARK INTER + INTRA:          -8.045
REMARK INTER:                  -7.024
REMARK INTRA:                  -1.021
REMARK UNBOUND:                -0.459
REMARK  Name = 8048
REMARK  12 active torsions:
REMARK  status: ('A' for Active; 'I' for Inactive)
REMARK    1  A    between atoms: O_1  and  C_12
REMARK    2  A    between atoms: O_1  and  C_13
REMARK    3  A    between atoms: C_3  and  C_4
REMARK    4  A    between atoms: C_3  and  C_5
REMARK    5  A    between atoms: C_4  and  C_6
REMARK    6  A    between atoms: C_5  and  C_7
REMARK    7  A    between atoms: C_6  and  C_8
REMARK    8  A    between atoms: C_7  and  C_9
REMARK    9  A    between atoms: C_8  and  C_10
REMARK   10  A    between atoms: C_9  and  C_11
REMARK   11  A    between atoms: C_10  and  C_12
REMARK   12  A    between atoms: C_13  and  C_14
REMARK                            x       y       z     vdW  Elec       q    Type
REMARK                         _______ _______ _______ _____ _____    ______ ____
ROOT
ATOM      1  C   UNL     1       2.847 -11.689   1.675  0.00  0.00    +0.000 C 
ATOM      2  H   UNL     1       2.759 -10.637   1.972  0.00  0.00    +0.000 HD
ATOM      3  H   UNL     1       2.384 -11.786   0.686  0.00  0.00    +0.000 HD
ENDROOT
BRANCH   1   4
ATOM      4  C   UNL     1       2.099 -12.568   2.681  0.00  0.00    +0.000 C 
ATOM      5  H   UNL     1       1.515 -11.937   3.361  0.00  0.00    +0.000 HD
ATOM      6  H   UNL     1       1.390 -13.214   2.149  0.00  0.00    +0.000 HD
BRANCH   4   7
ATOM      7  C   UNL     1       3.069 -13.434   3.488  0.00  0.00    +0.000 C 
ATOM      8  H   UNL     1       3.027 -13.135   4.543  0.00  0.00    +0.000 HD
ATOM      9  H   UNL     1       4.094 -13.243   3.145  0.00  0.00    +0.000 HD
BRANCH   7  10
ATOM     10  C   UNL     1       2.782 -14.934   3.378  0.00  0.00    +0.000 C 
ATOM     11  H   UNL     1       1.961 -15.093   2.668  0.00  0.00    +0.000 HD
ATOM     12  H   UNL     1       2.431 -15.299   4.352  0.00  0.00    +0.000 HD
BRANCH  10  13
ATOM     13  C   UNL     1       3.994 -15.754   2.937  0.00  0.00    +0.000 C 
ATOM     14  H   UNL     1       4.100 -16.635   3.580  0.00  0.00    +0.000 HD
ATOM     15  H   UNL     1       4.907 -15.158   3.051  0.00  0.00    +0.000 HD
BRANCH  13  16
ATOM     16  C   UNL     1       3.861 -16.206   1.491  0.00  0.00    +0.000 C 
ATOM     17  H   UNL     1       3.730 -15.349   0.823  0.00  0.00    +0.000 HD
ATOM     18  H   UNL     1       2.993 -16.861   1.377  0.00  0.00    +0.000 HD
ATOM     19  H   UNL     1       4.749 -16.761   1.170  0.00  0.00    +0.000 HD
ENDBRANCH  13  16
ENDBRANCH  10  13
ENDBRANCH   7  10
ENDBRANCH   4   7
ENDBRANCH   1   4
BRANCH   1  20
ATOM     20  C   UNL     1       4.325 -12.073   1.591  0.00  0.00    +0.000 C 
ATOM     21  H   UNL     1       4.946 -11.213   1.874  0.00  0.00    +0.000 HD
ATOM     22  H   UNL     1       4.536 -12.874   2.310  0.00  0.00    +0.000 HD
BRANCH  20  23
ATOM     23  C   UNL     1       4.702 -12.532   0.183  0.00  0.00    +0.000 C 
ATOM     24  H   UNL     1       4.910 -11.657  -0.446  0.00  0.00    +0.000 HD
ATOM     25  H   UNL     1       3.848 -13.052  -0.271  0.00  0.00    +0.000 HD
BRANCH  23  26
ATOM     26  C   UNL     1       5.915 -13.454   0.206  0.00  0.00    +0.000 C 
ATOM     27  H   UNL     1       6.292 -13.549   1.230  0.00  0.00    +0.000 HD
ATOM     28  H   UNL     1       5.642 -14.446  -0.172  0.00  0.00    +0.000 HD
BRANCH  26  30
ATOM     29  O   UNL     1       7.809 -13.605  -1.281  0.00  0.00    +0.000 OA
ATOM     30  C   UNL     1       7.018 -12.905  -0.663  0.00  0.00    +0.000 C 
BRANCH  30  31
ATOM     31  O   UNL     1       6.976 -11.542  -0.664  0.00  0.00    +0.000 OA
BRANCH  31  32
ATOM     32  C   UNL     1       8.015 -10.894   0.075  0.00  0.00    +0.000 C 
ATOM     33  H   UNL     1       8.510 -11.623   0.726  0.00  0.00    +0.000 HD
ATOM     34  H   UNL     1       7.585 -10.093   0.686  0.00  0.00    +0.000 HD
BRANCH  32  35
ATOM     35  C   UNL     1       9.021 -10.311  -0.896  0.00  0.00    +0.000 C 
ATOM     36  H   UNL     1       8.735 -10.539  -1.929  0.00  0.00    +0.000 HD
ATOM     37  H   UNL     1       9.053  -9.220  -0.809  0.00  0.00    +0.000 HD
ATOM     38  H   UNL     1      10.021 -10.710  -0.710  0.00  0.00    +0.000 HD
ENDBRANCH  32  35
ENDBRANCH  31  32
ENDBRANCH  30  31
ENDBRANCH  26  30
ENDBRANCH  23  26
ENDBRANCH  20  23
ENDBRANCH   1  20
TORSDOF 12
ENDMDL
MODEL 6
REMARK VINA RESULT:    -4.559     23.277     24.756
REMARK INTER + INTRA:          -7.950
REMARK INTER:                  -7.460
REMARK INTRA:                  -0.491
REMARK UNBOUND:                -0.459
REMARK  Name = 8048
REMARK  12 active torsions:
REMARK  status: ('A' for Active; 'I' for Inactive)
REMARK    1  A    between atoms: O_1  and  C_12
REMARK    2  A    between atoms: O_1  and  C_13
REMARK    3  A    between atoms: C_3  and  C_4
REMARK    4  A    between atoms: C_3  and  C_5
REMARK    5  A    between atoms: C_4  and  C_6
REMARK    6  A    between atoms: C_5  and  C_7
REMARK    7  A    between atoms: C_6  and  C_8
REMARK    8  A    between atoms: C_7  and  C_9
REMARK    9  A    between atoms: C_8  and  C_10
REMARK   10  A    between atoms: C_9  and  C_11
REMARK   11  A    between atoms: C_10  and  C_12
REMARK   12  A    between atoms: C_13  and  C_14
REMARK                            x       y       z     vdW  Elec       q    Type
REMARK                         _______ _______ _______ _____ _____    ______ ____
ROOT
ATOM      1  C   UNL     1      10.667  -8.954  -1.236  0.00  0.00    +0.000 C 
ATOM      2  H   UNL     1      10.585  -8.001  -1.774  0.00  0.00    +0.000 HD
ATOM      3  H   UNL     1      11.278  -8.770  -0.344  0.00  0.00    +0.000 HD
ENDROOT
BRANCH   1   4
ATOM      4  C   UNL     1      11.359  -9.987  -2.129  0.00  0.00    +0.000 C 
ATOM      5  H   UNL     1      12.173 -10.468  -1.575  0.00  0.00    +0.000 HD
ATOM      6  H   UNL     1      10.645 -10.773  -2.404  0.00  0.00    +0.000 HD
BRANCH   4   7
ATOM      7  C   UNL     1      11.915  -9.338  -3.398  0.00  0.00    +0.000 C 
ATOM      8  H   UNL     1      12.027  -8.259  -3.233  0.00  0.00    +0.000 HD
ATOM      9  H   UNL     1      11.191  -9.461  -4.214  0.00  0.00    +0.000 HD
BRANCH   7  10
ATOM     10  C   UNL     1      13.261  -9.920  -3.839  0.00  0.00    +0.000 C 
ATOM     11  H   UNL     1      14.066  -9.437  -3.272  0.00  0.00    +0.000 HD
ATOM     12  H   UNL     1      13.425  -9.670  -4.896  0.00  0.00    +0.000 HD
BRANCH  10  13
ATOM     13  C   UNL     1      13.357 -11.435  -3.658  0.00  0.00    +0.000 C 
ATOM     14  H   UNL     1      12.810 -11.941  -4.461  0.00  0.00    +0.000 HD
ATOM     15  H   UNL     1      12.888 -11.726  -2.711  0.00  0.00    +0.000 HD
BRANCH  13  16
ATOM     16  C   UNL     1      14.805 -11.904  -3.670  0.00  0.00    +0.000 C 
ATOM     17  H   UNL     1      15.339 -11.549  -2.783  0.00  0.00    +0.000 HD
ATOM     18  H   UNL     1      15.320 -11.517  -4.554  0.00  0.00    +0.000 HD
ATOM     19  H   UNL     1      14.863 -12.996  -3.694  0.00  0.00    +0.000 HD
ENDBRANCH  13  16
ENDBRANCH  10  13
ENDBRANCH   7  10
ENDBRANCH   4   7
ENDBRANCH   1   4
BRANCH   1  20
ATOM     20  C   UNL     1       9.274  -9.424  -0.817  0.00  0.00    +0.000 C 
ATOM     21  H   UNL     1       8.880  -8.761  -0.036  0.00  0.00    +0.000 HD
ATOM     22  H   UNL     1       8.592  -9.355  -1.673  0.00  0.00    +0.000 HD
BRANCH  20  23
ATOM     23  C   UNL     1       9.303 -10.861  -0.298  0.00  0.00    +0.000 C 
ATOM     24  H   UNL     1       9.123 -10.865   0.785  0.00  0.00    +0.000 HD
ATOM     25  H   UNL     1      10.305 -11.283  -0.453  0.00  0.00    +0.000 HD
BRANCH  23  26
ATOM     26  C   UNL     1       8.264 -11.727  -0.999  0.00  0.00    +0.000 C 
ATOM     27  H   UNL     1       7.812 -11.170  -1.828  0.00  0.00    +0.000 HD
ATOM     28  H   UNL     1       8.733 -12.637  -1.390  0.00  0.00    +0.000 HD
BRANCH  26  30
ATOM     29  O   UNL     1       7.063 -11.685   1.093  0.00  0.00    +0.000 OA
ATOM     30  C   UNL     1       7.172 -12.131  -0.041  0.00  0.00    +0.000 C 
BRANCH  30  31
ATOM     31  O   UNL     1       6.339 -13.031  -0.638  0.00  0.00    +0.000 OA
BRANCH  31  32
ATOM     32  C   UNL     1       4.961 -12.931  -0.271  0.00  0.00    +0.000 C 
ATOM     33  H   UNL     1       4.883 -12.714   0.800  0.00  0.00    +0.000 HD
ATOM     34  H   UNL     1       4.454 -13.878  -0.488  0.00  0.00    +0.000 HD
BRANCH  32  35
ATOM     35  C   UNL     1       4.318 -11.814  -1.067  0.00  0.00    +0.000 C 
ATOM     36  H   UNL     1       3.671 -11.207  -0.424  0.00  0.00    +0.000 HD
ATOM     37  H   UNL     1       5.081 -11.143  -1.474  0.00  0.00    +0.000 HD
ATOM     38  H   UNL     1       3.723 -12.214  -1.891  0.00  0.00    +0.000 HD
ENDBRANCH  32  35
ENDBRANCH  31  32
ENDBRANCH  30  31
ENDBRANCH  26  30
ENDBRANCH  23  26
ENDBRANCH  20  23
ENDBRANCH   1  20
TORSDOF 12
ENDMDL
MODEL 7
REMARK VINA RESULT:    -4.552     23.600     24.941
REMARK INTER + INTRA:          -7.939
REMARK INTER:                  -7.264
REMARK INTRA:                  -0.674
REMARK UNBOUND:                -0.459
REMARK  Name = 8048
REMARK  12 active torsions:
REMARK  status: ('A' for Active; 'I' for Inactive)
REMARK    1  A    between atoms: O_1  and  C_12
REMARK    2  A    between atoms: O_1  and  C_13
REMARK    3  A    between atoms: C_3  and  C_4
REMARK    4  A    between atoms: C_3  and  C_5
REMARK    5  A    between atoms: C_4  and  C_6
REMARK    6  A    between atoms: C_5  and  C_7
REMARK    7  A    between atoms: C_6  and  C_8
REMARK    8  A    between atoms: C_7  and  C_9
REMARK    9  A    between atoms: C_8  and  C_10
REMARK   10  A    between atoms: C_9  and  C_11
REMARK   11  A    between atoms: C_10  and  C_12
REMARK   12  A    between atoms: C_13  and  C_14
REMARK                            x       y       z     vdW  Elec       q    Type
REMARK                         _______ _______ _______ _____ _____    ______ ____
ROOT
ATOM      1  C   UNL     1      10.855 -12.930  -3.843  0.00  0.00    +0.000 C 
ATOM      2  H   UNL     1      11.707 -13.299  -3.260  0.00  0.00    +0.000 HD
ATOM      3  H   UNL     1      10.928 -13.376  -4.842  0.00  0.00    +0.000 HD
ENDROOT
BRANCH   1   4
ATOM      4  C   UNL     1      10.932 -11.405  -3.955  0.00  0.00    +0.000 C 
ATOM      5  H   UNL     1      10.830 -11.106  -5.005  0.00  0.00    +0.000 HD
ATOM      6  H   UNL     1      10.096 -10.954  -3.407  0.00  0.00    +0.000 HD
BRANCH   4   7
ATOM      7  C   UNL     1      12.253 -10.876  -3.395  0.00  0.00    +0.000 C 
ATOM      8  H   UNL     1      12.958 -10.715  -4.221  0.00  0.00    +0.000 HD
ATOM      9  H   UNL     1      12.699 -11.636  -2.742  0.00  0.00    +0.000 HD
BRANCH   7  10
ATOM     10  C   UNL     1      12.101  -9.573  -2.605  0.00  0.00    +0.000 C 
ATOM     11  H   UNL     1      11.987  -8.737  -3.307  0.00  0.00    +0.000 HD
ATOM     12  H   UNL     1      13.026  -9.390  -2.043  0.00  0.00    +0.000 HD
BRANCH  10  13
ATOM     13  C   UNL     1      10.915  -9.582  -1.639  0.00  0.00    +0.000 C 
ATOM     14  H   UNL     1      11.193 -10.105  -0.717  0.00  0.00    +0.000 HD
ATOM     15  H   UNL     1      10.078 -10.131  -2.085  0.00  0.00    +0.000 HD
BRANCH  13  16
ATOM     16  C   UNL     1      10.469  -8.169  -1.296  0.00  0.00    +0.000 C 
ATOM     17  H   UNL     1      11.311  -7.471  -1.336  0.00  0.00    +0.000 HD
ATOM     18  H   UNL     1      10.051  -8.139  -0.285  0.00  0.00    +0.000 HD
ATOM     19  H   UNL     1       9.699  -7.821  -1.992  0.00  0.00    +0.000 HD
ENDBRANCH  13  16
ENDBRANCH  10  13
ENDBRANCH   7  10
ENDBRANCH   4   7
ENDBRANCH   1   4
BRANCH   1  20
ATOM     20  C   UNL     1       9.552 -13.374  -3.177  0.00  0.00    +0.000 C 
ATOM     21  H   UNL     1       8.752 -13.424  -3.927  0.00  0.00    +0.000 HD
ATOM     22  H   UNL     1       9.676 -14.385  -2.770  0.00  0.00    +0.000 HD
BRANCH  20  23
ATOM     23  C   UNL     1       9.143 -12.416  -2.059  0.00  0.00    +0.000 C 
ATOM     24  H   UNL     1       8.799 -11.469  -2.493  0.00  0.00    +0.000 HD
ATOM     25  H   UNL     1      10.020 -12.181  -1.442  0.00  0.00    +0.000 HD
BRANCH  23  26
ATOM     26  C   UNL     1       8.044 -13.015  -1.188  0.00  0.00    +0.000 C 
ATOM     27  H   UNL     1       7.327 -13.557  -1.813  0.00  0.00    +0.000 HD
ATOM     28  H   UNL     1       8.479 -13.705  -0.455  0.00  0.00    +0.000 HD
BRANCH  26  30
ATOM     29  O   UNL     1       7.638 -10.755  -0.448  0.00  0.00    +0.000 OA
ATOM     30  C   UNL     1       7.308 -11.933  -0.439  0.00  0.00    +0.000 C 
BRANCH  30  31
ATOM     31  O   UNL     1       6.234 -12.466   0.211  0.00  0.00    +0.000 OA
BRANCH  31  32
ATOM     32  C   UNL     1       5.194 -12.972  -0.630  0.00  0.00    +0.000 C 
ATOM     33  H   UNL     1       4.607 -13.714  -0.078  0.00  0.00    +0.000 HD
ATOM     34  H   UNL     1       5.635 -13.442  -1.516  0.00  0.00    +0.000 HD
BRANCH  32  35
ATOM     35  C   UNL     1       4.300 -11.825  -1.053  0.00  0.00    +0.000 C 
ATOM     36  H   UNL     1       3.292 -11.951  -0.642  0.00  0.00    +0.000 HD
ATOM     37  H   UNL     1       4.684 -10.874  -0.667  0.00  0.00    +0.000 HD
ATOM     38  H   UNL     1       4.232 -11.762  -2.142  0.00  0.00    +0.000 HD
ENDBRANCH  32  35
ENDBRANCH  31  32
ENDBRANCH  30  31
ENDBRANCH  26  30
ENDBRANCH  23  26
ENDBRANCH  20  23
ENDBRANCH   1  20
TORSDOF 12
ENDMDL
MODEL 8
REMARK VINA RESULT:    -4.549     31.050     33.098
REMARK INTER + INTRA:          -7.933
REMARK INTER:                  -7.474
REMARK INTRA:                  -0.459
REMARK UNBOUND:                -0.459
REMARK  Name = 8048
REMARK  12 active torsions:
REMARK  status: ('A' for Active; 'I' for Inactive)
REMARK    1  A    between atoms: O_1  and  C_12
REMARK    2  A    between atoms: O_1  and  C_13
REMARK    3  A    between atoms: C_3  and  C_4
REMARK    4  A    between atoms: C_3  and  C_5
REMARK    5  A    between atoms: C_4  and  C_6
REMARK    6  A    between atoms: C_5  and  C_7
REMARK    7  A    between atoms: C_6  and  C_8
REMARK    8  A    between atoms: C_7  and  C_9
REMARK    9  A    between atoms: C_8  and  C_10
REMARK   10  A    between atoms: C_9  and  C_11
REMARK   11  A    between atoms: C_10  and  C_12
REMARK   12  A    between atoms: C_13  and  C_14
REMARK                            x       y       z     vdW  Elec       q    Type
REMARK                         _______ _______ _______ _____ _____    ______ ____
ROOT
ATOM      1  C   UNL     1     -10.534 -14.941   6.568  0.00  0.00    +0.000 C 
ATOM      2  H   UNL     1     -10.957 -13.962   6.822  0.00  0.00    +0.000 HD
ATOM      3  H   UNL     1     -11.182 -15.385   5.803  0.00  0.00    +0.000 HD
ENDROOT
BRANCH   1   4
ATOM      4  C   UNL     1     -10.525 -15.833   7.813  0.00  0.00    +0.000 C 
ATOM      5  H   UNL     1     -10.095 -16.810   7.564  0.00  0.00    +0.000 HD
ATOM      6  H   UNL     1      -9.885 -15.384   8.582  0.00  0.00    +0.000 HD
BRANCH   4   7
ATOM      7  C   UNL     1     -11.937 -16.020   8.371  0.00  0.00    +0.000 C 
ATOM      8  H   UNL     1     -11.926 -16.820   9.121  0.00  0.00    +0.000 HD
ATOM      9  H   UNL     1     -12.603 -16.351   7.564  0.00  0.00    +0.000 HD
BRANCH   7  10
ATOM     10  C   UNL     1     -12.516 -14.749   9.000  0.00  0.00    +0.000 C 
ATOM     11  H   UNL     1     -12.263 -13.887   8.369  0.00  0.00    +0.000 HD
ATOM     12  H   UNL     1     -12.032 -14.583   9.971  0.00  0.00    +0.000 HD
BRANCH  10  13
ATOM     13  C   UNL     1     -14.032 -14.803   9.194  0.00  0.00    +0.000 C 
ATOM     14  H   UNL     1     -14.298 -15.680   9.795  0.00  0.00    +0.000 HD
ATOM     15  H   UNL     1     -14.526 -14.914   8.222  0.00  0.00    +0.000 HD
BRANCH  13  16
ATOM     16  C   UNL     1     -14.547 -13.549   9.884  0.00  0.00    +0.000 C 
ATOM     17  H   UNL     1     -15.530 -13.264   9.496  0.00  0.00    +0.000 HD
ATOM     18  H   UNL     1     -13.859 -12.715   9.715  0.00  0.00    +0.000 HD
ATOM     19  H   UNL     1     -14.633 -13.704  10.964  0.00  0.00    +0.000 HD
ENDBRANCH  13  16
ENDBRANCH  10  13
ENDBRANCH   7  10
ENDBRANCH   4   7
ENDBRANCH   1   4
BRANCH   1  20
ATOM     20  C   UNL     1      -9.125 -14.757   6.005  0.00  0.00    +0.000 C 
ATOM     21  H   UNL     1      -8.893 -15.577   5.313  0.00  0.00    +0.000 HD
ATOM     22  H   UNL     1      -9.081 -13.826   5.427  0.00  0.00    +0.000 HD
BRANCH  20  23
ATOM     23  C   UNL     1      -8.079 -14.720   7.119  0.00  0.00    +0.000 C 
ATOM     24  H   UNL     1      -7.311 -15.480   6.929  0.00  0.00    +0.000 HD
ATOM     25  H   UNL     1      -8.555 -14.984   8.073  0.00  0.00    +0.000 HD
BRANCH  23  26
ATOM     26  C   UNL     1      -7.432 -13.345   7.228  0.00  0.00    +0.000 C 
ATOM     27  H   UNL     1      -8.158 -12.569   6.964  0.00  0.00    +0.000 HD
ATOM     28  H   UNL     1      -7.078 -13.175   8.252  0.00  0.00    +0.000 HD
BRANCH  26  30
ATOM     29  O   UNL     1      -5.136 -13.665   6.560  0.00  0.00    +0.000 OA
ATOM     30  C   UNL     1      -6.252 -13.235   6.297  0.00  0.00    +0.000 C 
BRANCH  30  31
ATOM     31  O   UNL     1      -6.627 -12.618   5.141  0.00  0.00    +0.000 OA
BRANCH  31  32
ATOM     32  C   UNL     1      -6.234 -13.279   3.934  0.00  0.00    +0.000 C 
ATOM     33  H   UNL     1      -6.982 -14.037   3.674  0.00  0.00    +0.000 HD
ATOM     34  H   UNL     1      -5.262 -13.762   4.081  0.00  0.00    +0.000 HD
BRANCH  32  35
ATOM     35  C   UNL     1      -6.134 -12.257   2.822  0.00  0.00    +0.000 C 
ATOM     36  H   UNL     1      -5.719 -12.713   1.916  0.00  0.00    +0.000 HD
ATOM     37  H   UNL     1      -7.126 -11.875   2.559  0.00  0.00    +0.000 HD
ATOM     38  H   UNL     1      -5.500 -11.417   3.117  0.00  0.00    +0.000 HD
ENDBRANCH  32  35
ENDBRANCH  31  32
ENDBRANCH  30  31
ENDBRANCH  26  30
ENDBRANCH  23  26
ENDBRANCH  20  23
ENDBRANCH   1  20
TORSDOF 12
ENDMDL
MODEL 9
REMARK VINA RESULT:    -4.525     25.508     26.902
REMARK INTER + INTRA:          -7.894
REMARK INTER:                  -6.475
REMARK INTRA:                  -1.419
REMARK UNBOUND:                -0.459
REMARK  Name = 8048
REMARK  12 active torsions:
REMARK  status: ('A' for Active; 'I' for Inactive)
REMARK    1  A    between atoms: O_1  and  C_12
REMARK    2  A    between atoms: O_1  and  C_13
REMARK    3  A    between atoms: C_3  and  C_4
REMARK    4  A    between atoms: C_3  and  C_5
REMARK    5  A    between atoms: C_4  and  C_6
REMARK    6  A    between atoms: C_5  and  C_7
REMARK    7  A    between atoms: C_6  and  C_8
REMARK    8  A    between atoms: C_7  and  C_9
REMARK    9  A    between atoms: C_8  and  C_10
REMARK   10  A    between atoms: C_9  and  C_11
REMARK   11  A    between atoms: C_10  and  C_12
REMARK   12  A    between atoms: C_13  and  C_14
REMARK                            x       y       z     vdW  Elec       q    Type
REMARK                         _______ _______ _______ _____ _____    ______ ____
ROOT
ATOM      1  C   UNL     1       5.914 -12.252   0.163  0.00  0.00    +0.000 C 
ATOM      2  H   UNL     1       5.277 -11.375   0.001  0.00  0.00    +0.000 HD
ATOM      3  H   UNL     1       6.130 -12.301   1.237  0.00  0.00    +0.000 HD
ENDROOT
BRANCH   1   4
ATOM      4  C   UNL     1       7.221 -12.087  -0.616  0.00  0.00    +0.000 C 
ATOM      5  H   UNL     1       7.013 -12.099  -1.693  0.00  0.00    +0.000 HD
ATOM      6  H   UNL     1       7.668 -11.114  -0.383  0.00  0.00    +0.000 HD
BRANCH   4   7
ATOM      7  C   UNL     1       8.214 -13.199  -0.273  0.00  0.00    +0.000 C 
ATOM      8  H   UNL     1       9.178 -12.983  -0.750  0.00  0.00    +0.000 HD
ATOM      9  H   UNL     1       7.857 -14.147  -0.697  0.00  0.00    +0.000 HD
BRANCH   7  10
ATOM     10  C   UNL     1       8.429 -13.380   1.232  0.00  0.00    +0.000 C 
ATOM     11  H   UNL     1       7.663 -12.814   1.776  0.00  0.00    +0.000 HD
ATOM     12  H   UNL     1       9.398 -12.944   1.506  0.00  0.00    +0.000 HD
BRANCH  10  13
ATOM     13  C   UNL     1       8.387 -14.842   1.681  0.00  0.00    +0.000 C 
ATOM     14  H   UNL     1       7.605 -14.976   2.436  0.00  0.00    +0.000 HD
ATOM     15  H   UNL     1       9.341 -15.114   2.148  0.00  0.00    +0.000 HD
BRANCH  13  16
ATOM     16  C   UNL     1       8.113 -15.773   0.509  0.00  0.00    +0.000 C 
ATOM     17  H   UNL     1       7.039 -15.937   0.381  0.00  0.00    +0.000 HD
ATOM     18  H   UNL     1       8.587 -16.745   0.680  0.00  0.00    +0.000 HD
ATOM     19  H   UNL     1       8.513 -15.360  -0.422  0.00  0.00    +0.000 HD
ENDBRANCH  13  16
ENDBRANCH  10  13
ENDBRANCH   7  10
ENDBRANCH   4   7
ENDBRANCH   1   4
BRANCH   1  20
ATOM     20  C   UNL     1       5.164 -13.514  -0.267  0.00  0.00    +0.000 C 
ATOM     21  H   UNL     1       4.301 -13.237  -0.886  0.00  0.00    +0.000 HD
ATOM     22  H   UNL     1       5.820 -14.135  -0.888  0.00  0.00    +0.000 HD
BRANCH  20  23
ATOM     23  C   UNL     1       4.686 -14.317   0.942  0.00  0.00    +0.000 C 
ATOM     24  H   UNL     1       5.345 -15.181   1.094  0.00  0.00    +0.000 HD
ATOM     25  H   UNL     1       3.683 -14.716   0.740  0.00  0.00    +0.000 HD
BRANCH  23  26
ATOM     26  C   UNL     1       4.657 -13.460   2.202  0.00  0.00    +0.000 C 
ATOM     27  H   UNL     1       5.468 -13.759   2.875  0.00  0.00    +0.000 HD
ATOM     28  H   UNL     1       4.776 -12.402   1.941  0.00  0.00    +0.000 HD
BRANCH  26  30
ATOM     29  O   UNL     1       3.160 -14.440   3.820  0.00  0.00    +0.000 OA
ATOM     30  C   UNL     1       3.346 -13.623   2.928  0.00  0.00    +0.000 C 
BRANCH  30  31
ATOM     31  O   UNL     1       2.437 -12.723   2.455  0.00  0.00    +0.000 OA
BRANCH  31  32
ATOM     32  C   UNL     1       2.944 -11.409   2.209  0.00  0.00    +0.000 C 
ATOM     33  H   UNL     1       4.039 -11.436   2.197  0.00  0.00    +0.000 HD
ATOM     34  H   UNL     1       2.605 -10.731   3.000  0.00  0.00    +0.000 HD
BRANCH  32  35
ATOM     35  C   UNL     1       2.431 -10.925   0.868  0.00  0.00    +0.000 C 
ATOM     36  H   UNL     1       3.165 -10.268   0.390  0.00  0.00    +0.000 HD
ATOM     37  H   UNL     1       2.272 -11.770   0.189  0.00  0.00    +0.000 HD
ATOM     38  H   UNL     1       1.490 -10.381   0.982  0.00  0.00    +0.000 HD
ENDBRANCH  32  35
ENDBRANCH  31  32
ENDBRANCH  30  31
ENDBRANCH  26  30
ENDBRANCH  23  26
ENDBRANCH  20  23
ENDBRANCH   1  20
TORSDOF 12
ENDMDL
MODEL 10
REMARK VINA RESULT:    -4.500     23.924     25.369
REMARK INTER + INTRA:          -7.854
REMARK INTER:                  -7.300
REMARK INTRA:                  -0.553
REMARK UNBOUND:                -0.459
REMARK  Name = 8048
REMARK  12 active torsions:
REMARK  status: ('A' for Active; 'I' for Inactive)
REMARK    1  A    between atoms: O_1  and  C_12
REMARK    2  A    between atoms: O_1  and  C_13
REMARK    3  A    between atoms: C_3  and  C_4
REMARK    4  A    between atoms: C_3  and  C_5
REMARK    5  A    between atoms: C_4  and  C_6
REMARK    6  A    between atoms: C_5  and  C_7
REMARK    7  A    between atoms: C_6  and  C_8
REMARK    8  A    between atoms: C_7  and  C_9
REMARK    9  A    between atoms: C_8  and  C_10
REMARK   10  A    between atoms: C_9  and  C_11
REMARK   11  A    between atoms: C_10  and  C_12
REMARK   12  A    between atoms: C_13  and  C_14
REMARK                            x       y       z     vdW  Elec       q    Type
REMARK                         _______ _______ _______ _____ _____    ______ ____
ROOT
ATOM      1  C   UNL     1       8.874  -9.034  -0.595  0.00  0.00    +0.000 C 
ATOM      2  H   UNL     1       8.688  -8.467  -1.515  0.00  0.00    +0.000 HD
ATOM      3  H   UNL     1       8.573  -8.396   0.244  0.00  0.00    +0.000 HD
ENDROOT
BRANCH   1   4
ATOM      4  C   UNL     1      10.366  -9.357  -0.485  0.00  0.00    +0.000 C 
ATOM      5  H   UNL     1      10.828  -8.715   0.274  0.00  0.00    +0.000 HD
ATOM      6  H   UNL     1      10.495 -10.394  -0.154  0.00  0.00    +0.000 HD
BRANCH   4   7
ATOM      7  C   UNL     1      11.075  -9.158  -1.826  0.00  0.00    +0.000 C 
ATOM      8  H   UNL     1      12.064  -8.717  -1.650  0.00  0.00    +0.000 HD
ATOM      9  H   UNL     1      10.510  -8.437  -2.430  0.00  0.00    +0.000 HD
BRANCH   7  10
ATOM     10  C   UNL     1      11.239 -10.453  -2.626  0.00  0.00    +0.000 C 
ATOM     11  H   UNL     1      10.270 -10.735  -3.058  0.00  0.00    +0.000 HD
ATOM     12  H   UNL     1      11.524 -11.260  -1.938  0.00  0.00    +0.000 HD
BRANCH  10  13
ATOM     13  C   UNL     1      12.278 -10.351  -3.743  0.00  0.00    +0.000 C 
ATOM     14  H   UNL     1      11.896  -9.713  -4.547  0.00  0.00    +0.000 HD
ATOM     15  H   UNL     1      12.459 -11.343  -4.173  0.00  0.00    +0.000 HD
BRANCH  13  16
ATOM     16  C   UNL     1      13.589  -9.776  -3.229  0.00  0.00    +0.000 C 
ATOM     17  H   UNL     1      14.082 -10.473  -2.544  0.00  0.00    +0.000 HD
ATOM     18  H   UNL     1      13.407  -8.841  -2.690  0.00  0.00    +0.000 HD
ATOM     19  H   UNL     1      14.274  -9.562  -4.056  0.00  0.00    +0.000 HD
ENDBRANCH  13  16
ENDBRANCH  10  13
ENDBRANCH   7  10
ENDBRANCH   4   7
ENDBRANCH   1   4
BRANCH   1  20
ATOM     20  C   UNL     1       8.027 -10.307  -0.602  0.00  0.00    +0.000 C 
ATOM     21  H   UNL     1       7.175 -10.188   0.080  0.00  0.00    +0.000 HD
ATOM     22  H   UNL     1       7.617 -10.469  -1.606  0.00  0.00    +0.000 HD
BRANCH  20  23
ATOM     23  C   UNL     1       8.850 -11.525  -0.180  0.00  0.00    +0.000 C 
ATOM     24  H   UNL     1       8.923 -11.559   0.914  0.00  0.00    +0.000 HD
ATOM     25  H   UNL     1       9.874 -11.423  -0.563  0.00  0.00    +0.000 HD
BRANCH  23  26
ATOM     26  C   UNL     1       8.232 -12.818  -0.697  0.00  0.00    +0.000 C 
ATOM     27  H   UNL     1       7.419 -12.591  -1.395  0.00  0.00    +0.000 HD
ATOM     28  H   UNL     1       8.991 -13.420  -1.211  0.00  0.00    +0.000 HD
BRANCH  26  30
ATOM     29  O   UNL     1       8.332 -13.997   1.406  0.00  0.00    +0.000 OA
ATOM     30  C   UNL     1       7.673 -13.635   0.440  0.00  0.00    +0.000 C 
BRANCH  30  31
ATOM     31  O   UNL     1       6.347 -13.876   0.232  0.00  0.00    +0.000 OA
BRANCH  31  32
ATOM     32  C   UNL     1       5.666 -14.535   1.304  0.00  0.00    +0.000 C 
ATOM     33  H   UNL     1       5.080 -13.802   1.870  0.00  0.00    +0.000 HD
ATOM     34  H   UNL     1       6.398 -15.007   1.968  0.00  0.00    +0.000 HD
BRANCH  32  35
ATOM     35  C   UNL     1       4.744 -15.590   0.728  0.00  0.00    +0.000 C 
ATOM     36  H   UNL     1       3.880 -15.123   0.243  0.00  0.00    +0.000 HD
ATOM     37  H   UNL     1       5.261 -16.176  -0.039  0.00  0.00    +0.000 HD
ATOM     38  H   UNL     1       4.388 -16.266   1.509  0.00  0.00    +0.000 HD
ENDBRANCH  32  35
ENDBRANCH  31  32
ENDBRANCH  30  31
ENDBRANCH  26  30
ENDBRANCH  23  26
ENDBRANCH  20  23
ENDBRANCH   1  20
TORSDOF 12
ENDMDL
