MODEL 1
REMARK VINA RESULT:    -3.535      0.000      0.000
REMARK INTER + INTRA:          -4.581
REMARK INTER:                  -4.483
REMARK INTRA:                  -0.099
REMARK UNBOUND:                -0.220
REMARK  Name = 429065
REMARK  5 active torsions:
REMARK  status: ('A' for Active; 'I' for Inactive)
REMARK    1  A    between atoms: O_1  and  C_3
REMARK    2  A    between atoms: O_1  and  C_5
REMARK    3  A    between atoms: C_3  and  C_4
REMARK    4  A    between atoms: C_5  and  C_6
REMARK    5  A    between atoms: C_7  and  C_8
REMARK                            x       y       z     vdW  Elec       q    Type
REMARK                         _______ _______ _______ _____ _____    ______ ____
ROOT
ATOM      1  O   UNL     1       1.185  -6.767  14.776  0.00  0.00    +0.000 OA
ATOM      2  C   UNL     1       0.661  -5.910  15.469  0.00  0.00    +0.000 C 
ENDROOT
BRANCH   2   3
ATOM      3  C   UNL     1       0.989  -4.468  15.443  0.00  0.00    +0.000 C 
ATOM      4  C   UNL     1       2.128  -4.051  14.875  0.00  0.00    +0.000 C 
ATOM      5  H   UNL     1       0.292  -3.769  15.892  0.00  0.00    +0.000 HD
ATOM      6  H   UNL     1       2.817  -4.764  14.430  0.00  0.00    +0.000 HD
BRANCH   4   7
ATOM      7  C   UNL     1       2.535  -2.616  14.808  0.00  0.00    +0.000 C 
ATOM      8  H   UNL     1       1.996  -2.113  13.999  0.00  0.00    +0.000 HD
ATOM      9  H   UNL     1       3.608  -2.496  14.629  0.00  0.00    +0.000 HD
ATOM     10  H   UNL     1       2.288  -2.115  15.749  0.00  0.00    +0.000 HD
ENDBRANCH   4   7
ENDBRANCH   2   3
BRANCH   2  11
ATOM     11  O   UNL     1      -0.317  -6.093  16.397  0.00  0.00    +0.000 OA
BRANCH  11  12
ATOM     12  C   UNL     1      -0.537  -7.449  16.799  0.00  0.00    +0.000 C 
ATOM     13  H   UNL     1      -1.598  -7.696  16.688  0.00  0.00    +0.000 HD
ATOM     14  H   UNL     1       0.061  -8.118  16.170  0.00  0.00    +0.000 HD
BRANCH  12  15
ATOM     15  C   UNL     1      -0.124  -7.606  18.248  0.00  0.00    +0.000 C 
ATOM     16  H   UNL     1      -0.818  -8.260  18.783  0.00  0.00    +0.000 HD
ATOM     17  H   UNL     1       0.885  -8.028  18.317  0.00  0.00    +0.000 HD
ATOM     18  H   UNL     1      -0.096  -6.633  18.748  0.00  0.00    +0.000 HD
ENDBRANCH  12  15
ENDBRANCH  11  12
ENDBRANCH   2  11
TORSDOF 5
ENDMDL
MODEL 2
REMARK VINA RESULT:    -3.344     22.708     24.638
REMARK INTER + INTRA:          -4.346
REMARK INTER:                  -4.228
REMARK INTRA:                  -0.118
REMARK UNBOUND:                -0.220
REMARK  Name = 429065
REMARK  5 active torsions:
REMARK  status: ('A' for Active; 'I' for Inactive)
REMARK    1  A    between atoms: O_1  and  C_3
REMARK    2  A    between atoms: O_1  and  C_5
REMARK    3  A    between atoms: C_3  and  C_4
REMARK    4  A    between atoms: C_5  and  C_6
REMARK    5  A    between atoms: C_7  and  C_8
REMARK                            x       y       z     vdW  Elec       q    Type
REMARK                         _______ _______ _______ _____ _____    ______ ____
ROOT
ATOM      1  O   UNL     1       4.972  11.674   0.021  0.00  0.00    +0.000 OA
ATOM      2  C   UNL     1       6.015  12.209   0.365  0.00  0.00    +0.000 C 
ENDROOT
BRANCH   2   3
ATOM      3  C   UNL     1       6.342  12.644   1.740  0.00  0.00    +0.000 C 
ATOM      4  C   UNL     1       5.617  12.197   2.773  0.00  0.00    +0.000 C 
ATOM      5  H   UNL     1       7.173  13.326   1.884  0.00  0.00    +0.000 HD
ATOM      6  H   UNL     1       4.787  11.515   2.613  0.00  0.00    +0.000 HD
BRANCH   4   7
ATOM      7  C   UNL     1       5.881  12.587   4.191  0.00  0.00    +0.000 C 
ATOM      8  H   UNL     1       6.267  11.729   4.748  0.00  0.00    +0.000 HD
ATOM      9  H   UNL     1       4.979  12.945   4.697  0.00  0.00    +0.000 HD
ATOM     10  H   UNL     1       6.630  13.384   4.223  0.00  0.00    +0.000 HD
ENDBRANCH   4   7
ENDBRANCH   2   3
BRANCH   2  11
ATOM     11  O   UNL     1       7.076  12.516  -0.429  0.00  0.00    +0.000 OA
BRANCH  11  12
ATOM     12  C   UNL     1       7.692  13.782  -0.170  0.00  0.00    +0.000 C 
ATOM     13  H   UNL     1       6.957  14.581  -0.311  0.00  0.00    +0.000 HD
ATOM     14  H   UNL     1       8.060  13.804   0.862  0.00  0.00    +0.000 HD
BRANCH  12  15
ATOM     15  C   UNL     1       8.848  13.973  -1.129  0.00  0.00    +0.000 C 
ATOM     16  H   UNL     1       9.471  14.820  -0.827  0.00  0.00    +0.000 HD
ATOM     17  H   UNL     1       9.470  13.072  -1.167  0.00  0.00    +0.000 HD
ATOM     18  H   UNL     1       8.480  14.149  -2.145  0.00  0.00    +0.000 HD
ENDBRANCH  12  15
ENDBRANCH  11  12
ENDBRANCH   2  11
TORSDOF 5
ENDMDL
MODEL 3
REMARK VINA RESULT:    -3.304      2.247      3.822
REMARK INTER + INTRA:          -4.297
REMARK INTER:                  -4.164
REMARK INTRA:                  -0.133
REMARK UNBOUND:                -0.220
REMARK  Name = 429065
REMARK  5 active torsions:
REMARK  status: ('A' for Active; 'I' for Inactive)
REMARK    1  A    between atoms: O_1  and  C_3
REMARK    2  A    between atoms: O_1  and  C_5
REMARK    3  A    between atoms: C_3  and  C_4
REMARK    4  A    between atoms: C_5  and  C_6
REMARK    5  A    between atoms: C_7  and  C_8
REMARK                            x       y       z     vdW  Elec       q    Type
REMARK                         _______ _______ _______ _____ _____    ______ ____
ROOT
ATOM      1  O   UNL     1      -0.077  -6.791  15.152  0.00  0.00    +0.000 OA
ATOM      2  C   UNL     1       1.081  -6.450  15.338  0.00  0.00    +0.000 C 
ENDROOT
BRANCH   2   3
ATOM      3  C   UNL     1       2.276  -7.188  14.876  0.00  0.00    +0.000 C 
ATOM      4  C   UNL     1       2.350  -7.615  13.608  0.00  0.00    +0.000 C 
ATOM      5  H   UNL     1       3.079  -7.370  15.582  0.00  0.00    +0.000 HD
ATOM      6  H   UNL     1       1.538  -7.426  12.913  0.00  0.00    +0.000 HD
BRANCH   4   7
ATOM      7  C   UNL     1       3.519  -8.367  13.063  0.00  0.00    +0.000 C 
ATOM      8  H   UNL     1       4.428  -8.084  13.601  0.00  0.00    +0.000 HD
ATOM      9  H   UNL     1       3.678  -8.172  11.997  0.00  0.00    +0.000 HD
ATOM     10  H   UNL     1       3.363  -9.442  13.193  0.00  0.00    +0.000 HD
ENDBRANCH   4   7
ENDBRANCH   2   3
BRANCH   2  11
ATOM     11  O   UNL     1       1.510  -5.340  15.998  0.00  0.00    +0.000 OA
BRANCH  11  12
ATOM     12  C   UNL     1       1.015  -4.095  15.495  0.00  0.00    +0.000 C 
ATOM     13  H   UNL     1       0.404  -4.278  14.606  0.00  0.00    +0.000 HD
ATOM     14  H   UNL     1       0.403  -3.609  16.264  0.00  0.00    +0.000 HD
BRANCH  12  15
ATOM     15  C   UNL     1       2.188  -3.207  15.137  0.00  0.00    +0.000 C 
ATOM     16  H   UNL     1       2.161  -2.932  14.079  0.00  0.00    +0.000 HD
ATOM     17  H   UNL     1       2.177  -2.293  15.741  0.00  0.00    +0.000 HD
ATOM     18  H   UNL     1       3.134  -3.715  15.348  0.00  0.00    +0.000 HD
ENDBRANCH  12  15
ENDBRANCH  11  12
ENDBRANCH   2  11
TORSDOF 5
ENDMDL
MODEL 4
REMARK VINA RESULT:    -3.287     16.506     17.181
REMARK INTER + INTRA:          -4.276
REMARK INTER:                  -4.111
REMARK INTRA:                  -0.165
REMARK UNBOUND:                -0.220
REMARK  Name = 429065
REMARK  5 active torsions:
REMARK  status: ('A' for Active; 'I' for Inactive)
REMARK    1  A    between atoms: O_1  and  C_3
REMARK    2  A    between atoms: O_1  and  C_5
REMARK    3  A    between atoms: C_3  and  C_4
REMARK    4  A    between atoms: C_5  and  C_6
REMARK    5  A    between atoms: C_7  and  C_8
REMARK                            x       y       z     vdW  Elec       q    Type
REMARK                         _______ _______ _______ _____ _____    ______ ____
ROOT
ATOM      1  O   UNL     1      -3.935  11.156  10.887  0.00  0.00    +0.000 OA
ATOM      2  C   UNL     1      -3.265  10.454  11.627  0.00  0.00    +0.000 C 
ENDROOT
BRANCH   2   3
ATOM      3  C   UNL     1      -1.789  10.355  11.610  0.00  0.00    +0.000 C 
ATOM      4  C   UNL     1      -1.048  11.453  11.412  0.00  0.00    +0.000 C 
ATOM      5  H   UNL     1      -1.332   9.383  11.760  0.00  0.00    +0.000 HD
ATOM      6  H   UNL     1      -1.520  12.420  11.262  0.00  0.00    +0.000 HD
BRANCH   4   7
ATOM      7  C   UNL     1       0.445  11.440  11.379  0.00  0.00    +0.000 C 
ATOM      8  H   UNL     1       0.794  11.068  10.411  0.00  0.00    +0.000 HD
ATOM      9  H   UNL     1       0.873  10.806  12.163  0.00  0.00    +0.000 HD
ATOM     10  H   UNL     1       0.829  12.456  11.516  0.00  0.00    +0.000 HD
ENDBRANCH   4   7
ENDBRANCH   2   3
BRANCH   2  11
ATOM     11  O   UNL     1      -3.722   9.626  12.605  0.00  0.00    +0.000 OA
BRANCH  11  12
ATOM     12  C   UNL     1      -3.532  10.093  13.945  0.00  0.00    +0.000 C 
ATOM     13  H   UNL     1      -3.557   9.243  14.635  0.00  0.00    +0.000 HD
ATOM     14  H   UNL     1      -2.562  10.597  14.022  0.00  0.00    +0.000 HD
BRANCH  12  15
ATOM     15  C   UNL     1      -4.642  11.065  14.289  0.00  0.00    +0.000 C 
ATOM     16  H   UNL     1      -4.237  11.978  14.734  0.00  0.00    +0.000 HD
ATOM     17  H   UNL     1      -5.213  11.330  13.392  0.00  0.00    +0.000 HD
ATOM     18  H   UNL     1      -5.347  10.611  14.992  0.00  0.00    +0.000 HD
ENDBRANCH  12  15
ENDBRANCH  11  12
ENDBRANCH   2  11
TORSDOF 5
ENDMDL
MODEL 5
REMARK VINA RESULT:    -3.216     20.987     21.574
REMARK INTER + INTRA:          -4.189
REMARK INTER:                  -4.065
REMARK INTRA:                  -0.123
REMARK UNBOUND:                -0.220
REMARK  Name = 429065
REMARK  5 active torsions:
REMARK  status: ('A' for Active; 'I' for Inactive)
REMARK    1  A    between atoms: O_1  and  C_3
REMARK    2  A    between atoms: O_1  and  C_5
REMARK    3  A    between atoms: C_3  and  C_4
REMARK    4  A    between atoms: C_5  and  C_6
REMARK    5  A    between atoms: C_7  and  C_8
REMARK                            x       y       z     vdW  Elec       q    Type
REMARK                         _______ _______ _______ _____ _____    ______ ____
ROOT
ATOM      1  O   UNL     1     -16.864  -1.099   8.460  0.00  0.00    +0.000 OA
ATOM      2  C   UNL     1     -18.000  -1.541   8.535  0.00  0.00    +0.000 C 
ENDROOT
BRANCH   2   3
ATOM      3  C   UNL     1     -18.886  -1.827   7.387  0.00  0.00    +0.000 C 
ATOM      4  C   UNL     1     -18.468  -2.636   6.404  0.00  0.00    +0.000 C 
ATOM      5  H   UNL     1     -19.869  -1.369   7.363  0.00  0.00    +0.000 HD
ATOM      6  H   UNL     1     -17.480  -3.086   6.442  0.00  0.00    +0.000 HD
BRANCH   4   7
ATOM      7  C   UNL     1     -19.299  -2.975   5.211  0.00  0.00    +0.000 C 
ATOM      8  H   UNL     1     -18.822  -2.593   4.304  0.00  0.00    +0.000 HD
ATOM      9  H   UNL     1     -20.306  -2.551   5.272  0.00  0.00    +0.000 HD
ATOM     10  H   UNL     1     -19.392  -4.062   5.119  0.00  0.00    +0.000 HD
ENDBRANCH   4   7
ENDBRANCH   2   3
BRANCH   2  11
ATOM     11  O   UNL     1     -18.681  -1.856   9.670  0.00  0.00    +0.000 OA
BRANCH  11  12
ATOM     12  C   UNL     1     -20.106  -1.758   9.580  0.00  0.00    +0.000 C 
ATOM     13  H   UNL     1     -20.431  -0.790   9.976  0.00  0.00    +0.000 HD
ATOM     14  H   UNL     1     -20.411  -1.843   8.531  0.00  0.00    +0.000 HD
BRANCH  12  15
ATOM     15  C   UNL     1     -20.729  -2.877  10.387  0.00  0.00    +0.000 C 
ATOM     16  H   UNL     1     -21.636  -2.535  10.894  0.00  0.00    +0.000 HD
ATOM     17  H   UNL     1     -20.983  -3.724   9.740  0.00  0.00    +0.000 HD
ATOM     18  H   UNL     1     -20.024  -3.250  11.136  0.00  0.00    +0.000 HD
ENDBRANCH  12  15
ENDBRANCH  11  12
ENDBRANCH   2  11
TORSDOF 5
ENDMDL
MODEL 6
REMARK VINA RESULT:    -3.196     15.154     15.866
REMARK INTER + INTRA:          -4.163
REMARK INTER:                  -3.964
REMARK INTRA:                  -0.200
REMARK UNBOUND:                -0.220
REMARK  Name = 429065
REMARK  5 active torsions:
REMARK  status: ('A' for Active; 'I' for Inactive)
REMARK    1  A    between atoms: O_1  and  C_3
REMARK    2  A    between atoms: O_1  and  C_5
REMARK    3  A    between atoms: C_3  and  C_4
REMARK    4  A    between atoms: C_5  and  C_6
REMARK    5  A    between atoms: C_7  and  C_8
REMARK                            x       y       z     vdW  Elec       q    Type
REMARK                         _______ _______ _______ _____ _____    ______ ____
ROOT
ATOM      1  O   UNL     1      -8.042 -11.778   4.279  0.00  0.00    +0.000 OA
ATOM      2  C   UNL     1      -7.349 -12.718   3.920  0.00  0.00    +0.000 C 
ENDROOT
BRANCH   2   3
ATOM      3  C   UNL     1      -6.647 -12.818   2.622  0.00  0.00    +0.000 C 
ATOM      4  C   UNL     1      -5.576 -12.051   2.380  0.00  0.00    +0.000 C 
ATOM      5  H   UNL     1      -7.020 -13.519   1.883  0.00  0.00    +0.000 HD
ATOM      6  H   UNL     1      -5.216 -11.352   3.129  0.00  0.00    +0.000 HD
BRANCH   4   7
ATOM      7  C   UNL     1      -4.812 -12.089   1.097  0.00  0.00    +0.000 C 
ATOM      8  H   UNL     1      -3.751 -11.907   1.290  0.00  0.00    +0.000 HD
ATOM      9  H   UNL     1      -5.163 -11.339   0.382  0.00  0.00    +0.000 HD
ATOM     10  H   UNL     1      -4.913 -13.076   0.634  0.00  0.00    +0.000 HD
ENDBRANCH   4   7
ENDBRANCH   2   3
BRANCH   2  11
ATOM     11  O   UNL     1      -7.081 -13.852   4.622  0.00  0.00    +0.000 OA
BRANCH  11  12
ATOM     12  C   UNL     1      -6.783 -13.660   6.009  0.00  0.00    +0.000 C 
ATOM     13  H   UNL     1      -7.286 -12.757   6.369  0.00  0.00    +0.000 HD
ATOM     14  H   UNL     1      -7.136 -14.526   6.581  0.00  0.00    +0.000 HD
BRANCH  12  15
ATOM     15  C   UNL     1      -5.285 -13.513   6.175  0.00  0.00    +0.000 C 
ATOM     16  H   UNL     1      -5.045 -12.956   7.085  0.00  0.00    +0.000 HD
ATOM     17  H   UNL     1      -4.805 -14.497   6.226  0.00  0.00    +0.000 HD
ATOM     18  H   UNL     1      -4.852 -12.992   5.316  0.00  0.00    +0.000 HD
ENDBRANCH  12  15
ENDBRANCH  11  12
ENDBRANCH   2  11
TORSDOF 5
ENDMDL
MODEL 7
REMARK VINA RESULT:    -3.164     22.436     23.712
REMARK INTER + INTRA:          -4.124
REMARK INTER:                  -3.967
REMARK INTRA:                  -0.157
REMARK UNBOUND:                -0.220
REMARK  Name = 429065
REMARK  5 active torsions:
REMARK  status: ('A' for Active; 'I' for Inactive)
REMARK    1  A    between atoms: O_1  and  C_3
REMARK    2  A    between atoms: O_1  and  C_5
REMARK    3  A    between atoms: C_3  and  C_4
REMARK    4  A    between atoms: C_5  and  C_6
REMARK    5  A    between atoms: C_7  and  C_8
REMARK                            x       y       z     vdW  Elec       q    Type
REMARK                         _______ _______ _______ _____ _____    ______ ____
ROOT
ATOM      1  O   UNL     1       3.325  13.177   1.531  0.00  0.00    +0.000 OA
ATOM      2  C   UNL     1       4.332  12.494   1.426  0.00  0.00    +0.000 C 
ENDROOT
BRANCH   2   3
ATOM      3  C   UNL     1       5.248  12.142   2.533  0.00  0.00    +0.000 C 
ATOM      4  C   UNL     1       5.191  12.817   3.688  0.00  0.00    +0.000 C 
ATOM      5  H   UNL     1       5.957  11.335   2.382  0.00  0.00    +0.000 HD
ATOM      6  H   UNL     1       4.477  13.623   3.823  0.00  0.00    +0.000 HD
BRANCH   4   7
ATOM      7  C   UNL     1       6.080  12.525   4.853  0.00  0.00    +0.000 C 
ATOM      8  H   UNL     1       6.113  13.390   5.522  0.00  0.00    +0.000 HD
ATOM      9  H   UNL     1       7.104  12.291   4.546  0.00  0.00    +0.000 HD
ATOM     10  H   UNL     1       5.689  11.671   5.414  0.00  0.00    +0.000 HD
ENDBRANCH   4   7
ENDBRANCH   2   3
BRANCH   2  11
ATOM     11  O   UNL     1       4.818  11.923   0.291  0.00  0.00    +0.000 OA
BRANCH  11  12
ATOM     12  C   UNL     1       6.238  11.991   0.127  0.00  0.00    +0.000 C 
ATOM     13  H   UNL     1       6.702  12.269   1.079  0.00  0.00    +0.000 HD
ATOM     14  H   UNL     1       6.616  11.012  -0.189  0.00  0.00    +0.000 HD
BRANCH  12  15
ATOM     15  C   UNL     1       6.564  13.030  -0.924  0.00  0.00    +0.000 C 
ATOM     16  H   UNL     1       6.000  13.951  -0.751  0.00  0.00    +0.000 HD
ATOM     17  H   UNL     1       7.634  13.263  -0.917  0.00  0.00    +0.000 HD
ATOM     18  H   UNL     1       6.328  12.653  -1.924  0.00  0.00    +0.000 HD
ENDBRANCH  12  15
ENDBRANCH  11  12
ENDBRANCH   2  11
TORSDOF 5
ENDMDL
MODEL 8
REMARK VINA RESULT:    -3.161     16.495     17.202
REMARK INTER + INTRA:          -4.121
REMARK INTER:                  -4.025
REMARK INTRA:                  -0.096
REMARK UNBOUND:                -0.220
REMARK  Name = 429065
REMARK  5 active torsions:
REMARK  status: ('A' for Active; 'I' for Inactive)
REMARK    1  A    between atoms: O_1  and  C_3
REMARK    2  A    between atoms: O_1  and  C_5
REMARK    3  A    between atoms: C_3  and  C_4
REMARK    4  A    between atoms: C_5  and  C_6
REMARK    5  A    between atoms: C_7  and  C_8
REMARK                            x       y       z     vdW  Elec       q    Type
REMARK                         _______ _______ _______ _____ _____    ______ ____
ROOT
ATOM      1  O   UNL     1       4.918 -13.552  -0.609  0.00  0.00    +0.000 OA
ATOM      2  C   UNL     1       5.337 -13.118   0.453  0.00  0.00    +0.000 C 
ENDROOT
BRANCH   2   3
ATOM      3  C   UNL     1       6.417 -12.120   0.605  0.00  0.00    +0.000 C 
ATOM      4  C   UNL     1       7.020 -11.616  -0.480  0.00  0.00    +0.000 C 
ATOM      5  H   UNL     1       6.703 -11.812   1.605  0.00  0.00    +0.000 HD
ATOM      6  H   UNL     1       6.723 -11.934  -1.475  0.00  0.00    +0.000 HD
BRANCH   4   7
ATOM      7  C   UNL     1       8.118 -10.606  -0.414  0.00  0.00    +0.000 C 
ATOM      8  H   UNL     1       8.317 -10.207  -1.413  0.00  0.00    +0.000 HD
ATOM      9  H   UNL     1       9.049 -11.029  -0.024  0.00  0.00    +0.000 HD
ATOM     10  H   UNL     1       7.822  -9.776   0.235  0.00  0.00    +0.000 HD
ENDBRANCH   4   7
ENDBRANCH   2   3
BRANCH   2  11
ATOM     11  O   UNL     1       4.909 -13.455   1.700  0.00  0.00    +0.000 OA
BRANCH  11  12
ATOM     12  C   UNL     1       4.164 -12.444   2.389  0.00  0.00    +0.000 C 
ATOM     13  H   UNL     1       4.830 -11.898   3.065  0.00  0.00    +0.000 HD
ATOM     14  H   UNL     1       3.734 -11.748   1.660  0.00  0.00    +0.000 HD
BRANCH  12  15
ATOM     15  C   UNL     1       3.056 -13.104   3.183  0.00  0.00    +0.000 C 
ATOM     16  H   UNL     1       3.160 -14.192   3.168  0.00  0.00    +0.000 HD
ATOM     17  H   UNL     1       3.071 -12.760   4.223  0.00  0.00    +0.000 HD
ATOM     18  H   UNL     1       2.078 -12.836   2.774  0.00  0.00    +0.000 HD
ENDBRANCH  12  15
ENDBRANCH  11  12
ENDBRANCH   2  11
TORSDOF 5
ENDMDL
MODEL 9
REMARK VINA RESULT:    -3.135      2.546      3.340
REMARK INTER + INTRA:          -4.088
REMARK INTER:                  -3.874
REMARK INTRA:                  -0.215
REMARK UNBOUND:                -0.220
REMARK  Name = 429065
REMARK  5 active torsions:
REMARK  status: ('A' for Active; 'I' for Inactive)
REMARK    1  A    between atoms: O_1  and  C_3
REMARK    2  A    between atoms: O_1  and  C_5
REMARK    3  A    between atoms: C_3  and  C_4
REMARK    4  A    between atoms: C_5  and  C_6
REMARK    5  A    between atoms: C_7  and  C_8
REMARK                            x       y       z     vdW  Elec       q    Type
REMARK                         _______ _______ _______ _____ _____    ______ ____
ROOT
ATOM      1  O   UNL     1       3.053  -5.107  16.706  0.00  0.00    +0.000 OA
ATOM      2  C   UNL     1       2.571  -5.650  15.724  0.00  0.00    +0.000 C 
ENDROOT
BRANCH   2   3
ATOM      3  C   UNL     1       3.226  -6.703  14.918  0.00  0.00    +0.000 C 
ATOM      4  C   UNL     1       2.570  -7.271  13.898  0.00  0.00    +0.000 C 
ATOM      5  H   UNL     1       4.239  -6.997  15.173  0.00  0.00    +0.000 HD
ATOM      6  H   UNL     1       1.556  -6.966  13.655  0.00  0.00    +0.000 HD
BRANCH   4   7
ATOM      7  C   UNL     1       3.158  -8.339  13.036  0.00  0.00    +0.000 C 
ATOM      8  H   UNL     1       3.581  -9.131  13.661  0.00  0.00    +0.000 HD
ATOM      9  H   UNL     1       3.951  -7.958  12.385  0.00  0.00    +0.000 HD
ATOM     10  H   UNL     1       2.380  -8.778  12.405  0.00  0.00    +0.000 HD
ENDBRANCH   4   7
ENDBRANCH   2   3
BRANCH   2  11
ATOM     11  O   UNL     1       1.351  -5.407  15.171  0.00  0.00    +0.000 OA
BRANCH  11  12
ATOM     12  C   UNL     1       0.326  -5.016  16.091  0.00  0.00    +0.000 C 
ATOM     13  H   UNL     1       0.786  -4.638  17.010  0.00  0.00    +0.000 HD
ATOM     14  H   UNL     1      -0.288  -4.229  15.639  0.00  0.00    +0.000 HD
BRANCH  12  15
ATOM     15  C   UNL     1      -0.536  -6.220  16.408  0.00  0.00    +0.000 C 
ATOM     16  H   UNL     1      -1.015  -6.606  15.504  0.00  0.00    +0.000 HD
ATOM     17  H   UNL     1       0.066  -7.017  16.858  0.00  0.00    +0.000 HD
ATOM     18  H   UNL     1      -1.311  -5.958  17.135  0.00  0.00    +0.000 HD
ENDBRANCH  12  15
ENDBRANCH  11  12
ENDBRANCH   2  11
TORSDOF 5
ENDMDL
MODEL 10
REMARK VINA RESULT:    -3.100     25.506     26.205
REMARK INTER + INTRA:          -4.046
REMARK INTER:                  -3.825
REMARK INTRA:                  -0.220
REMARK UNBOUND:                -0.220
REMARK  Name = 429065
REMARK  5 active torsions:
REMARK  status: ('A' for Active; 'I' for Inactive)
REMARK    1  A    between atoms: O_1  and  C_3
REMARK    2  A    between atoms: O_1  and  C_5
REMARK    3  A    between atoms: C_3  and  C_4
REMARK    4  A    between atoms: C_5  and  C_6
REMARK    5  A    between atoms: C_7  and  C_8
REMARK                            x       y       z     vdW  Elec       q    Type
REMARK                         _______ _______ _______ _____ _____    ______ ____
ROOT
ATOM      1  O   UNL     1      -4.875  -7.206 -11.556  0.00  0.00    +0.000 OA
ATOM      2  C   UNL     1      -4.993  -6.821 -10.404  0.00  0.00    +0.000 C 
ENDROOT
BRANCH   2   3
ATOM      3  C   UNL     1      -6.250  -6.352  -9.781  0.00  0.00    +0.000 C 
ATOM      4  C   UNL     1      -6.288  -6.088  -8.468  0.00  0.00    +0.000 C 
ATOM      5  H   UNL     1      -7.126  -6.231 -10.408  0.00  0.00    +0.000 HD
ATOM      6  H   UNL     1      -5.402  -6.215  -7.852  0.00  0.00    +0.000 HD
BRANCH   4   7
ATOM      7  C   UNL     1      -7.515  -5.612  -7.762  0.00  0.00    +0.000 C 
ATOM      8  H   UNL     1      -7.660  -6.184  -6.841  0.00  0.00    +0.000 HD
ATOM      9  H   UNL     1      -8.415  -5.718  -8.376  0.00  0.00    +0.000 HD
ATOM     10  H   UNL     1      -7.405  -4.556  -7.497  0.00  0.00    +0.000 HD
ENDBRANCH   4   7
ENDBRANCH   2   3
BRANCH   2  11
ATOM     11  O   UNL     1      -4.012  -6.742  -9.464  0.00  0.00    +0.000 OA
BRANCH  11  12
ATOM     12  C   UNL     1      -2.955  -7.699  -9.595  0.00  0.00    +0.000 C 
ATOM     13  H   UNL     1      -2.822  -7.952 -10.652  0.00  0.00    +0.000 HD
ATOM     14  H   UNL     1      -2.026  -7.271  -9.203  0.00  0.00    +0.000 HD
BRANCH  12  15
ATOM     15  C   UNL     1      -3.317  -8.943  -8.811  0.00  0.00    +0.000 C 
ATOM     16  H   UNL     1      -2.530  -9.697  -8.891  0.00  0.00    +0.000 HD
ATOM     17  H   UNL     1      -3.471  -8.700  -7.754  0.00  0.00    +0.000 HD
ATOM     18  H   UNL     1      -4.256  -9.369  -9.178  0.00  0.00    +0.000 HD
ENDBRANCH  12  15
ENDBRANCH  11  12
ENDBRANCH   2  11
TORSDOF 5
ENDMDL
