MODEL 1
REMARK VINA RESULT:    -3.370      0.000      0.000
REMARK INTER + INTRA:          -4.202
REMARK INTER:                  -4.114
REMARK INTRA:                  -0.088
REMARK UNBOUND:                -0.044
REMARK  Name = 7749
REMARK  5 active torsions:
REMARK  status: ('A' for Active; 'I' for Inactive)
REMARK    1  A    between atoms: O_1  and  C_4
REMARK    2  A    between atoms: O_1  and  C_5
REMARK    3  A    between atoms: C_3  and  C_5
REMARK    4  A    between atoms: C_3  and  C_6
REMARK    5  A    between atoms: C_4  and  C_7
REMARK                            x       y       z     vdW  Elec       q    Type
REMARK                         _______ _______ _______ _____ _____    ______ ____
ROOT
ATOM      1  O   UNL     1       4.704  -4.108   0.566  0.00  0.00    +0.000 OA
ATOM      2  C   UNL     1       5.194  -3.430  -0.326  0.00  0.00    +0.000 C 
ENDROOT
BRANCH   2   3
ATOM      3  C   UNL     1       4.414  -2.582  -1.304  0.00  0.00    +0.000 C 
ATOM      4  H   UNL     1       4.850  -1.578  -1.317  0.00  0.00    +0.000 HD
ATOM      5  H   UNL     1       4.507  -3.027  -2.299  0.00  0.00    +0.000 HD
BRANCH   3   6
ATOM      6  C   UNL     1       2.944  -2.486  -0.932  0.00  0.00    +0.000 C 
ATOM      7  H   UNL     1       2.609  -1.444  -0.922  0.00  0.00    +0.000 HD
ATOM      8  H   UNL     1       2.331  -3.035  -1.652  0.00  0.00    +0.000 HD
ATOM      9  H   UNL     1       2.762  -2.905   0.064  0.00  0.00    +0.000 HD
ENDBRANCH   3   6
ENDBRANCH   2   3
BRANCH   2  10
ATOM     10  O   UNL     1       6.526  -3.313  -0.604  0.00  0.00    +0.000 OA
BRANCH  10  11
ATOM     11  C   UNL     1       7.392  -3.272   0.534  0.00  0.00    +0.000 C 
ATOM     12  H   UNL     1       6.823  -3.530   1.435  0.00  0.00    +0.000 HD
ATOM     13  H   UNL     1       8.205  -3.993   0.399  0.00  0.00    +0.000 HD
BRANCH  11  14
ATOM     14  C   UNL     1       7.962  -1.876   0.671  0.00  0.00    +0.000 C 
ATOM     15  H   UNL     1       9.016  -1.855   0.382  0.00  0.00    +0.000 HD
ATOM     16  H   UNL     1       7.409  -1.172   0.041  0.00  0.00    +0.000 HD
ATOM     17  H   UNL     1       7.870  -1.522   1.702  0.00  0.00    +0.000 HD
ENDBRANCH  11  14
ENDBRANCH  10  11
ENDBRANCH   2  10
TORSDOF 5
ENDMDL
MODEL 2
REMARK VINA RESULT:    -3.348      8.933      9.842
REMARK INTER + INTRA:          -4.175
REMARK INTER:                  -4.055
REMARK INTRA:                  -0.120
REMARK UNBOUND:                -0.044
REMARK  Name = 7749
REMARK  5 active torsions:
REMARK  status: ('A' for Active; 'I' for Inactive)
REMARK    1  A    between atoms: O_1  and  C_4
REMARK    2  A    between atoms: O_1  and  C_5
REMARK    3  A    between atoms: C_3  and  C_5
REMARK    4  A    between atoms: C_3  and  C_6
REMARK    5  A    between atoms: C_4  and  C_7
REMARK                            x       y       z     vdW  Elec       q    Type
REMARK                         _______ _______ _______ _____ _____    ______ ____
ROOT
ATOM      1  O   UNL     1       2.494 -10.793   0.536  0.00  0.00    +0.000 OA
ATOM      2  C   UNL     1       3.437 -11.554   0.368  0.00  0.00    +0.000 C 
ENDROOT
BRANCH   2   3
ATOM      3  C   UNL     1       4.235 -11.684  -0.908  0.00  0.00    +0.000 C 
ATOM      4  H   UNL     1       3.557 -11.547  -1.757  0.00  0.00    +0.000 HD
ATOM      5  H   UNL     1       4.994 -10.896  -0.924  0.00  0.00    +0.000 HD
BRANCH   3   6
ATOM      6  C   UNL     1       4.915 -13.038  -1.023  0.00  0.00    +0.000 C 
ATOM      7  H   UNL     1       5.677 -13.162  -0.246  0.00  0.00    +0.000 HD
ATOM      8  H   UNL     1       4.183 -13.843  -0.916  0.00  0.00    +0.000 HD
ATOM      9  H   UNL     1       5.408 -13.149  -1.995  0.00  0.00    +0.000 HD
ENDBRANCH   3   6
ENDBRANCH   2   3
BRANCH   2  10
ATOM     10  O   UNL     1       3.941 -12.422   1.295  0.00  0.00    +0.000 OA
BRANCH  10  11
ATOM     11  C   UNL     1       3.476 -12.232   2.635  0.00  0.00    +0.000 C 
ATOM     12  H   UNL     1       4.335 -12.129   3.308  0.00  0.00    +0.000 HD
ATOM     13  H   UNL     1       2.866 -11.324   2.683  0.00  0.00    +0.000 HD
BRANCH  11  14
ATOM     14  C   UNL     1       2.646 -13.430   3.044  0.00  0.00    +0.000 C 
ATOM     15  H   UNL     1       2.064 -13.212   3.944  0.00  0.00    +0.000 HD
ATOM     16  H   UNL     1       1.960 -13.715   2.241  0.00  0.00    +0.000 HD
ATOM     17  H   UNL     1       3.288 -14.295   3.238  0.00  0.00    +0.000 HD
ENDBRANCH  11  14
ENDBRANCH  10  11
ENDBRANCH   2  10
TORSDOF 5
ENDMDL
MODEL 3
REMARK VINA RESULT:    -3.302      9.336     10.167
REMARK INTER + INTRA:          -4.118
REMARK INTER:                  -3.975
REMARK INTRA:                  -0.143
REMARK UNBOUND:                -0.044
REMARK  Name = 7749
REMARK  5 active torsions:
REMARK  status: ('A' for Active; 'I' for Inactive)
REMARK    1  A    between atoms: O_1  and  C_4
REMARK    2  A    between atoms: O_1  and  C_5
REMARK    3  A    between atoms: C_3  and  C_5
REMARK    4  A    between atoms: C_3  and  C_6
REMARK    5  A    between atoms: C_4  and  C_7
REMARK                            x       y       z     vdW  Elec       q    Type
REMARK                         _______ _______ _______ _____ _____    ______ ____
ROOT
ATOM      1  O   UNL     1       6.115 -13.704   1.401  0.00  0.00    +0.000 OA
ATOM      2  C   UNL     1       5.257 -13.010   0.872  0.00  0.00    +0.000 C 
ENDROOT
BRANCH   2   3
ATOM      3  C   UNL     1       4.993 -12.934  -0.613  0.00  0.00    +0.000 C 
ATOM      4  H   UNL     1       5.955 -12.938  -1.137  0.00  0.00    +0.000 HD
ATOM      5  H   UNL     1       4.419 -13.817  -0.909  0.00  0.00    +0.000 HD
BRANCH   3   6
ATOM      6  C   UNL     1       4.221 -11.682  -0.993  0.00  0.00    +0.000 C 
ATOM      7  H   UNL     1       3.251 -11.650  -0.488  0.00  0.00    +0.000 HD
ATOM      8  H   UNL     1       4.783 -10.786  -0.712  0.00  0.00    +0.000 HD
ATOM      9  H   UNL     1       4.037 -11.646  -2.073  0.00  0.00    +0.000 HD
ENDBRANCH   3   6
ENDBRANCH   2   3
BRANCH   2  10
ATOM     10  O   UNL     1       4.385 -12.182   1.520  0.00  0.00    +0.000 OA
BRANCH  10  11
ATOM     11  C   UNL     1       3.862 -12.681   2.755  0.00  0.00    +0.000 C 
ATOM     12  H   UNL     1       4.079 -13.752   2.837  0.00  0.00    +0.000 HD
ATOM     13  H   UNL     1       4.331 -12.150   3.590  0.00  0.00    +0.000 HD
BRANCH  11  14
ATOM     14  C   UNL     1       2.365 -12.460   2.782  0.00  0.00    +0.000 C 
ATOM     15  H   UNL     1       1.870 -13.040   1.998  0.00  0.00    +0.000 HD
ATOM     16  H   UNL     1       1.950 -12.752   3.752  0.00  0.00    +0.000 HD
ATOM     17  H   UNL     1       2.129 -11.400   2.641  0.00  0.00    +0.000 HD
ENDBRANCH  11  14
ENDBRANCH  10  11
ENDBRANCH   2  10
TORSDOF 5
ENDMDL
MODEL 4
REMARK VINA RESULT:    -3.178      1.427      3.443
REMARK INTER + INTRA:          -3.965
REMARK INTER:                  -3.875
REMARK INTRA:                  -0.091
REMARK UNBOUND:                -0.044
REMARK  Name = 7749
REMARK  5 active torsions:
REMARK  status: ('A' for Active; 'I' for Inactive)
REMARK    1  A    between atoms: O_1  and  C_4
REMARK    2  A    between atoms: O_1  and  C_5
REMARK    3  A    between atoms: C_3  and  C_5
REMARK    4  A    between atoms: C_3  and  C_6
REMARK    5  A    between atoms: C_4  and  C_7
REMARK                            x       y       z     vdW  Elec       q    Type
REMARK                         _______ _______ _______ _____ _____    ______ ____
ROOT
ATOM      1  O   UNL     1       6.383  -4.690  -1.024  0.00  0.00    +0.000 OA
ATOM      2  C   UNL     1       6.429  -3.470  -1.102  0.00  0.00    +0.000 C 
ENDROOT
BRANCH   2   3
ATOM      3  C   UNL     1       7.695  -2.648  -1.170  0.00  0.00    +0.000 C 
ATOM      4  H   UNL     1       8.543  -3.298  -0.930  0.00  0.00    +0.000 HD
ATOM      5  H   UNL     1       7.809  -2.271  -2.191  0.00  0.00    +0.000 HD
BRANCH   3   6
ATOM      6  C   UNL     1       7.670  -1.478  -0.202  0.00  0.00    +0.000 C 
ATOM      7  H   UNL     1       8.622  -1.387   0.331  0.00  0.00    +0.000 HD
ATOM      8  H   UNL     1       7.488  -0.542  -0.738  0.00  0.00    +0.000 HD
ATOM      9  H   UNL     1       6.880  -1.603   0.547  0.00  0.00    +0.000 HD
ENDBRANCH   3   6
ENDBRANCH   2   3
BRANCH   2  10
ATOM     10  O   UNL     1       5.353  -2.628  -1.142  0.00  0.00    +0.000 OA
BRANCH  10  11
ATOM     11  C   UNL     1       4.233  -3.022  -0.345  0.00  0.00    +0.000 C 
ATOM     12  H   UNL     1       4.134  -4.114  -0.367  0.00  0.00    +0.000 HD
ATOM     13  H   UNL     1       4.386  -2.692   0.688  0.00  0.00    +0.000 HD
BRANCH  11  14
ATOM     14  C   UNL     1       2.979  -2.384  -0.905  0.00  0.00    +0.000 C 
ATOM     15  H   UNL     1       3.143  -2.037  -1.929  0.00  0.00    +0.000 HD
ATOM     16  H   UNL     1       2.150  -3.098  -0.903  0.00  0.00    +0.000 HD
ATOM     17  H   UNL     1       2.670  -1.534  -0.288  0.00  0.00    +0.000 HD
ENDBRANCH  11  14
ENDBRANCH  10  11
ENDBRANCH   2  10
TORSDOF 5
ENDMDL
MODEL 5
REMARK VINA RESULT:    -3.128      8.128      8.637
REMARK INTER + INTRA:          -3.903
REMARK INTER:                  -3.807
REMARK INTRA:                  -0.097
REMARK UNBOUND:                -0.044
REMARK  Name = 7749
REMARK  5 active torsions:
REMARK  status: ('A' for Active; 'I' for Inactive)
REMARK    1  A    between atoms: O_1  and  C_4
REMARK    2  A    between atoms: O_1  and  C_5
REMARK    3  A    between atoms: C_3  and  C_5
REMARK    4  A    between atoms: C_3  and  C_6
REMARK    5  A    between atoms: C_4  and  C_7
REMARK                            x       y       z     vdW  Elec       q    Type
REMARK                         _______ _______ _______ _____ _____    ______ ____
ROOT
ATOM      1  O   UNL     1       6.827 -12.144   1.493  0.00  0.00    +0.000 OA
ATOM      2  C   UNL     1       6.430 -12.048   0.340  0.00  0.00    +0.000 C 
ENDROOT
BRANCH   2   3
ATOM      3  C   UNL     1       5.214 -12.744  -0.224  0.00  0.00    +0.000 C 
ATOM      4  H   UNL     1       5.551 -13.557  -0.876  0.00  0.00    +0.000 HD
ATOM      5  H   UNL     1       4.640 -13.165   0.607  0.00  0.00    +0.000 HD
BRANCH   3   6
ATOM      6  C   UNL     1       4.329 -11.798  -1.016  0.00  0.00    +0.000 C 
ATOM      7  H   UNL     1       4.775 -10.799  -1.076  0.00  0.00    +0.000 HD
ATOM      8  H   UNL     1       4.188 -12.170  -2.035  0.00  0.00    +0.000 HD
ATOM      9  H   UNL     1       3.344 -11.696  -0.549  0.00  0.00    +0.000 HD
ENDBRANCH   3   6
ENDBRANCH   2   3
BRANCH   2  10
ATOM     10  O   UNL     1       7.008 -11.299  -0.646  0.00  0.00    +0.000 OA
BRANCH  10  11
ATOM     11  C   UNL     1       8.359 -10.896  -0.403  0.00  0.00    +0.000 C 
ATOM     12  H   UNL     1       8.645 -11.174   0.618  0.00  0.00    +0.000 HD
ATOM     13  H   UNL     1       9.022 -11.397  -1.115  0.00  0.00    +0.000 HD
BRANCH  11  14
ATOM     14  C   UNL     1       8.464  -9.395  -0.572  0.00  0.00    +0.000 C 
ATOM     15  H   UNL     1       9.490  -9.100  -0.812  0.00  0.00    +0.000 HD
ATOM     16  H   UNL     1       7.802  -9.051  -1.372  0.00  0.00    +0.000 HD
ATOM     17  H   UNL     1       8.152  -8.881   0.343  0.00  0.00    +0.000 HD
ENDBRANCH  11  14
ENDBRANCH  10  11
ENDBRANCH   2  10
TORSDOF 5
ENDMDL
MODEL 6
REMARK VINA RESULT:    -3.115     25.800     26.434
REMARK INTER + INTRA:          -3.887
REMARK INTER:                  -3.810
REMARK INTRA:                  -0.077
REMARK UNBOUND:                -0.044
REMARK  Name = 7749
REMARK  5 active torsions:
REMARK  status: ('A' for Active; 'I' for Inactive)
REMARK    1  A    between atoms: O_1  and  C_4
REMARK    2  A    between atoms: O_1  and  C_5
REMARK    3  A    between atoms: C_3  and  C_5
REMARK    4  A    between atoms: C_3  and  C_6
REMARK    5  A    between atoms: C_4  and  C_7
REMARK                            x       y       z     vdW  Elec       q    Type
REMARK                         _______ _______ _______ _____ _____    ______ ____
ROOT
ATOM      1  O   UNL     1      -6.690   7.283  20.379  0.00  0.00    +0.000 OA
ATOM      2  C   UNL     1      -7.788   6.745  20.365  0.00  0.00    +0.000 C 
ENDROOT
BRANCH   2   3
ATOM      3  C   UNL     1      -8.077   5.341  20.845  0.00  0.00    +0.000 C 
ATOM      4  H   UNL     1      -8.522   5.400  21.844  0.00  0.00    +0.000 HD
ATOM      5  H   UNL     1      -8.796   4.882  20.159  0.00  0.00    +0.000 HD
BRANCH   3   6
ATOM      6  C   UNL     1      -6.822   4.487  20.904  0.00  0.00    +0.000 C 
ATOM      7  H   UNL     1      -6.937   3.578  20.304  0.00  0.00    +0.000 HD
ATOM      8  H   UNL     1      -5.963   5.045  20.520  0.00  0.00    +0.000 HD
ATOM      9  H   UNL     1      -6.602   4.183  21.933  0.00  0.00    +0.000 HD
ENDBRANCH   3   6
ENDBRANCH   2   3
BRANCH   2  10
ATOM     10  O   UNL     1      -8.950   7.307  19.919  0.00  0.00    +0.000 OA
BRANCH  10  11
ATOM     11  C   UNL     1      -8.799   8.490  19.128  0.00  0.00    +0.000 C 
ATOM     12  H   UNL     1      -9.400   9.298  19.561  0.00  0.00    +0.000 HD
ATOM     13  H   UNL     1      -7.745   8.788  19.116  0.00  0.00    +0.000 HD
BRANCH  11  14
ATOM     14  C   UNL     1      -9.267   8.205  17.718  0.00  0.00    +0.000 C 
ATOM     15  H   UNL     1     -10.074   7.466  17.716  0.00  0.00    +0.000 HD
ATOM     16  H   UNL     1      -9.627   9.121  17.238  0.00  0.00    +0.000 HD
ATOM     17  H   UNL     1      -8.441   7.828  17.106  0.00  0.00    +0.000 HD
ENDBRANCH  11  14
ENDBRANCH  10  11
ENDBRANCH   2  10
TORSDOF 5
ENDMDL
MODEL 7
REMARK VINA RESULT:    -3.045     15.132     16.521
REMARK INTER + INTRA:          -3.801
REMARK INTER:                  -3.717
REMARK INTRA:                  -0.084
REMARK UNBOUND:                -0.044
REMARK  Name = 7749
REMARK  5 active torsions:
REMARK  status: ('A' for Active; 'I' for Inactive)
REMARK    1  A    between atoms: O_1  and  C_4
REMARK    2  A    between atoms: O_1  and  C_5
REMARK    3  A    between atoms: C_3  and  C_5
REMARK    4  A    between atoms: C_3  and  C_6
REMARK    5  A    between atoms: C_4  and  C_7
REMARK                            x       y       z     vdW  Elec       q    Type
REMARK                         _______ _______ _______ _____ _____    ______ ____
ROOT
ATOM      1  O   UNL     1      -6.012 -14.897   4.235  0.00  0.00    +0.000 OA
ATOM      2  C   UNL     1      -6.040 -13.818   4.811  0.00  0.00    +0.000 C 
ENDROOT
BRANCH   2   3
ATOM      3  C   UNL     1      -5.775 -13.610   6.284  0.00  0.00    +0.000 C 
ATOM      4  H   UNL     1      -5.148 -14.433   6.643  0.00  0.00    +0.000 HD
ATOM      5  H   UNL     1      -5.234 -12.666   6.408  0.00  0.00    +0.000 HD
BRANCH   3   6
ATOM      6  C   UNL     1      -7.058 -13.565   7.095  0.00  0.00    +0.000 C 
ATOM      7  H   UNL     1      -7.429 -12.539   7.188  0.00  0.00    +0.000 HD
ATOM      8  H   UNL     1      -7.835 -14.167   6.615  0.00  0.00    +0.000 HD
ATOM      9  H   UNL     1      -6.898 -13.954   8.106  0.00  0.00    +0.000 HD
ENDBRANCH   3   6
ENDBRANCH   2   3
BRANCH   2  10
ATOM     10  O   UNL     1      -6.313 -12.609   4.235  0.00  0.00    +0.000 OA
BRANCH  10  11
ATOM     11  C   UNL     1      -6.428 -12.617   2.809  0.00  0.00    +0.000 C 
ATOM     12  H   UNL     1      -6.445 -13.653   2.450  0.00  0.00    +0.000 HD
ATOM     13  H   UNL     1      -7.356 -12.116   2.516  0.00  0.00    +0.000 HD
BRANCH  11  14
ATOM     14  C   UNL     1      -5.242 -11.889   2.214  0.00  0.00    +0.000 C 
ATOM     15  H   UNL     1      -5.541 -10.916   1.814  0.00  0.00    +0.000 HD
ATOM     16  H   UNL     1      -4.465 -11.736   2.971  0.00  0.00    +0.000 HD
ATOM     17  H   UNL     1      -4.791 -12.479   1.410  0.00  0.00    +0.000 HD
ENDBRANCH  11  14
ENDBRANCH  10  11
ENDBRANCH   2  10
TORSDOF 5
ENDMDL
MODEL 8
REMARK VINA RESULT:    -3.025     16.156     17.083
REMARK INTER + INTRA:          -3.777
REMARK INTER:                  -3.693
REMARK INTRA:                  -0.084
REMARK UNBOUND:                -0.044
REMARK  Name = 7749
REMARK  5 active torsions:
REMARK  status: ('A' for Active; 'I' for Inactive)
REMARK    1  A    between atoms: O_1  and  C_4
REMARK    2  A    between atoms: O_1  and  C_5
REMARK    3  A    between atoms: C_3  and  C_5
REMARK    4  A    between atoms: C_3  and  C_6
REMARK    5  A    between atoms: C_4  and  C_7
REMARK                            x       y       z     vdW  Elec       q    Type
REMARK                         _______ _______ _______ _____ _____    ______ ____
ROOT
ATOM      1  O   UNL     1      10.992  13.995  -5.353  0.00  0.00    +0.000 OA
ATOM      2  C   UNL     1      10.319  12.982  -5.219  0.00  0.00    +0.000 C 
ENDROOT
BRANCH   2   3
ATOM      3  C   UNL     1       9.561  12.286  -6.325  0.00  0.00    +0.000 C 
ATOM      4  H   UNL     1      10.063  11.339  -6.547  0.00  0.00    +0.000 HD
ATOM      5  H   UNL     1       8.545  12.081  -5.973  0.00  0.00    +0.000 HD
BRANCH   3   6
ATOM      6  C   UNL     1       9.494  13.127  -7.589  0.00  0.00    +0.000 C 
ATOM      7  H   UNL     1       8.559  12.949  -8.130  0.00  0.00    +0.000 HD
ATOM      8  H   UNL     1       9.550  14.191  -7.343  0.00  0.00    +0.000 HD
ATOM      9  H   UNL     1      10.322  12.887  -8.265  0.00  0.00    +0.000 HD
ENDBRANCH   3   6
ENDBRANCH   2   3
BRANCH   2  10
ATOM     10  O   UNL     1      10.128  12.296  -4.053  0.00  0.00    +0.000 OA
BRANCH  10  11
ATOM     11  C   UNL     1       8.764  12.105  -3.666  0.00  0.00    +0.000 C 
ATOM     12  H   UNL     1       8.213  13.044  -3.797  0.00  0.00    +0.000 HD
ATOM     13  H   UNL     1       8.313  11.328  -4.291  0.00  0.00    +0.000 HD
BRANCH  11  14
ATOM     14  C   UNL     1       8.718  11.685  -2.212  0.00  0.00    +0.000 C 
ATOM     15  H   UNL     1       8.566  12.550  -1.560  0.00  0.00    +0.000 HD
ATOM     16  H   UNL     1       7.906  10.970  -2.044  0.00  0.00    +0.000 HD
ATOM     17  H   UNL     1       9.648  11.184  -1.926  0.00  0.00    +0.000 HD
ENDBRANCH  11  14
ENDBRANCH  10  11
ENDBRANCH   2  10
TORSDOF 5
ENDMDL
MODEL 9
REMARK VINA RESULT:    -2.974     22.527     23.821
REMARK INTER + INTRA:          -3.714
REMARK INTER:                  -3.670
REMARK INTRA:                  -0.044
REMARK UNBOUND:                -0.044
REMARK  Name = 7749
REMARK  5 active torsions:
REMARK  status: ('A' for Active; 'I' for Inactive)
REMARK    1  A    between atoms: O_1  and  C_4
REMARK    2  A    between atoms: O_1  and  C_5
REMARK    3  A    between atoms: C_3  and  C_5
REMARK    4  A    between atoms: C_3  and  C_6
REMARK    5  A    between atoms: C_4  and  C_7
REMARK                            x       y       z     vdW  Elec       q    Type
REMARK                         _______ _______ _______ _____ _____    ______ ____
ROOT
ATOM      1  O   UNL     1     -14.361  -2.322  10.689  0.00  0.00    +0.000 OA
ATOM      2  C   UNL     1     -14.964  -1.284  10.458  0.00  0.00    +0.000 C 
ENDROOT
BRANCH   2   3
ATOM      3  C   UNL     1     -14.693   0.047  11.122  0.00  0.00    +0.000 C 
ATOM      4  H   UNL     1     -15.647   0.565  11.264  0.00  0.00    +0.000 HD
ATOM      5  H   UNL     1     -14.236  -0.140  12.099  0.00  0.00    +0.000 HD
BRANCH   3   6
ATOM      6  C   UNL     1     -13.766   0.920  10.294  0.00  0.00    +0.000 C 
ATOM      7  H   UNL     1     -14.317   1.438   9.501  0.00  0.00    +0.000 HD
ATOM      8  H   UNL     1     -13.287   1.674  10.925  0.00  0.00    +0.000 HD
ATOM      9  H   UNL     1     -12.982   0.322   9.818  0.00  0.00    +0.000 HD
ENDBRANCH   3   6
ENDBRANCH   2   3
BRANCH   2  10
ATOM     10  O   UNL     1     -15.987  -1.132   9.566  0.00  0.00    +0.000 OA
BRANCH  10  11
ATOM     11  C   UNL     1     -17.018  -2.122   9.635  0.00  0.00    +0.000 C 
ATOM     12  H   UNL     1     -16.578  -3.117   9.505  0.00  0.00    +0.000 HD
ATOM     13  H   UNL     1     -17.510  -2.067  10.612  0.00  0.00    +0.000 HD
BRANCH  11  14
ATOM     14  C   UNL     1     -18.027  -1.861   8.537  0.00  0.00    +0.000 C 
ATOM     15  H   UNL     1     -18.556  -2.780   8.267  0.00  0.00    +0.000 HD
ATOM     16  H   UNL     1     -18.759  -1.113   8.857  0.00  0.00    +0.000 HD
ATOM     17  H   UNL     1     -17.532  -1.462   7.646  0.00  0.00    +0.000 HD
ENDBRANCH  11  14
ENDBRANCH  10  11
ENDBRANCH   2  10
TORSDOF 5
ENDMDL
MODEL 10
REMARK VINA RESULT:    -2.913      8.252      9.342
REMARK INTER + INTRA:          -3.639
REMARK INTER:                  -3.589
REMARK INTRA:                  -0.050
REMARK UNBOUND:                -0.044
REMARK  Name = 7749
REMARK  5 active torsions:
REMARK  status: ('A' for Active; 'I' for Inactive)
REMARK    1  A    between atoms: O_1  and  C_4
REMARK    2  A    between atoms: O_1  and  C_5
REMARK    3  A    between atoms: C_3  and  C_5
REMARK    4  A    between atoms: C_3  and  C_6
REMARK    5  A    between atoms: C_4  and  C_7
REMARK                            x       y       z     vdW  Elec       q    Type
REMARK                         _______ _______ _______ _____ _____    ______ ____
ROOT
ATOM      1  O   UNL     1       8.778 -12.189   0.028  0.00  0.00    +0.000 OA
ATOM      2  C   UNL     1       8.064 -11.267  -0.339  0.00  0.00    +0.000 C 
ENDROOT
BRANCH   2   3
ATOM      3  C   UNL     1       8.524  -9.846  -0.570  0.00  0.00    +0.000 C 
ATOM      4  H   UNL     1       7.880  -9.391  -1.330  0.00  0.00    +0.000 HD
ATOM      5  H   UNL     1       8.420  -9.291   0.368  0.00  0.00    +0.000 HD
BRANCH   3   6
ATOM      6  C   UNL     1       9.969  -9.782  -1.033  0.00  0.00    +0.000 C 
ATOM      7  H   UNL     1      10.056  -9.235  -1.978  0.00  0.00    +0.000 HD
ATOM      8  H   UNL     1      10.588  -9.275  -0.287  0.00  0.00    +0.000 HD
ATOM      9  H   UNL     1      10.377 -10.787  -1.191  0.00  0.00    +0.000 HD
ENDBRANCH   3   6
ENDBRANCH   2   3
BRANCH   2  10
ATOM     10  O   UNL     1       6.726 -11.346  -0.607  0.00  0.00    +0.000 OA
BRANCH  10  11
ATOM     11  C   UNL     1       6.059 -12.496  -0.078  0.00  0.00    +0.000 C 
ATOM     12  H   UNL     1       6.788 -13.299   0.084  0.00  0.00    +0.000 HD
ATOM     13  H   UNL     1       5.585 -12.237   0.874  0.00  0.00    +0.000 HD
BRANCH  11  14
ATOM     14  C   UNL     1       5.007 -12.954  -1.066  0.00  0.00    +0.000 C 
ATOM     15  H   UNL     1       4.177 -13.448  -0.553  0.00  0.00    +0.000 HD
ATOM     16  H   UNL     1       4.616 -12.104  -1.633  0.00  0.00    +0.000 HD
ATOM     17  H   UNL     1       5.438 -13.650  -1.793  0.00  0.00    +0.000 HD
ENDBRANCH  11  14
ENDBRANCH  10  11
ENDBRANCH   2  10
TORSDOF 5
ENDMDL
