MODEL 1
REMARK VINA RESULT:    -5.854      0.000      0.000
REMARK INTER + INTRA:         -12.391
REMARK INTER:                 -11.117
REMARK INTRA:                  -1.274
REMARK UNBOUND:                -1.575
REMARK  Name = 10390702
REMARK  19 active torsions:
REMARK  status: ('A' for Active; 'I' for Inactive)
REMARK    1  A    between atoms: O_3  and  C_26
REMARK    2  A    between atoms: O_4  and  C_27
REMARK    3  A    between atoms: O_5  and  C_33
REMARK    4  A    between atoms: C_8  and  C_11
REMARK    5  A    between atoms: C_9  and  C_14
REMARK    6  A    between atoms: C_9  and  C_15
REMARK    7  A    between atoms: C_10  and  C_13
REMARK    8  A    between atoms: C_12  and  C_18
REMARK    9  A    between atoms: C_12  and  C_20
REMARK   10  A    between atoms: C_13  and  C_21
REMARK   11  A    between atoms: C_18  and  C_22
REMARK   12  A    between atoms: C_18  and  C_23
REMARK   13  A    between atoms: C_21  and  C_25
REMARK   14  A    between atoms: C_22  and  C_24
REMARK   15  A    between atoms: C_24  and  C_28
REMARK   16  A    between atoms: C_24  and  C_29
REMARK   17  A    between atoms: C_25  and  C_30
REMARK   18  A    between atoms: C_31  and  C_35
REMARK   19  A    between atoms: C_32  and  C_34
REMARK                            x       y       z     vdW  Elec       q    Type
REMARK                         _______ _______ _______ _____ _____    ______ ____
ROOT
ATOM      1  O   UNL     1       9.776 -11.023  -9.071  0.00  0.00    +0.000 OA
ATOM      2  C   UNL     1      11.119 -10.965  -7.047  0.00  0.00    +0.000 C 
ATOM      3  C   UNL     1      11.586 -12.206  -6.242  0.00  0.00    +0.000 C 
ATOM      4  C   UNL     1      10.327 -13.100  -6.259  0.00  0.00    +0.000 C 
ATOM      5  C   UNL     1      10.170 -11.584  -8.056  0.00  0.00    +0.000 C 
ATOM      6  C   UNL     1       9.760 -12.981  -7.669  0.00  0.00    +0.000 C 
ATOM      7  H   UNL     1      10.446 -10.389  -6.414  0.00  0.00    +0.000 HD
ATOM      8  H   UNL     1      10.500 -14.170  -6.188  0.00  0.00    +0.000 HD
ATOM      9  H   UNL     1       9.500 -12.817  -5.609  0.00  0.00    +0.000 HD
ATOM     10  H   UNL     1      10.225 -13.691  -8.360  0.00  0.00    +0.000 HD
ATOM     11  H   UNL     1       8.673 -13.088  -7.684  0.00  0.00    +0.000 HD
ENDROOT
BRANCH   2  12
ATOM     12  C   UNL     1      12.202 -10.140  -7.667  0.00  0.00    +0.000 C 
ATOM     13  C   UNL     1      12.767  -8.952  -6.944  0.00  0.00    +0.000 C 
ATOM     14  C   UNL     1      11.879  -8.752  -8.136  0.00  0.00    +0.000 C 
ATOM     15  H   UNL     1      12.843 -10.697  -8.338  0.00  0.00    +0.000 HD
ATOM     16  H   UNL     1      12.326  -8.433  -9.072  0.00  0.00    +0.000 HD
BRANCH  13  17
ATOM     17  C   UNL     1      12.231  -8.660  -5.583  0.00  0.00    +0.000 C 
ATOM     18  H   UNL     1      12.542  -7.647  -5.294  0.00  0.00    +0.000 HD
ATOM     19  H   UNL     1      11.153  -8.677  -5.435  0.00  0.00    +0.000 HD
ATOM     20  H   UNL     1      12.686  -9.333  -4.853  0.00  0.00    +0.000 HD
ENDBRANCH  13  17
BRANCH  13  21
ATOM     21  C   UNL     1      14.215  -8.631  -7.102  0.00  0.00    +0.000 C 
ATOM     22  H   UNL     1      14.733  -9.436  -7.634  0.00  0.00    +0.000 HD
ATOM     23  H   UNL     1      14.344  -7.705  -7.671  0.00  0.00    +0.000 HD
ATOM     24  H   UNL     1      14.716  -8.496  -6.137  0.00  0.00    +0.000 HD
ENDBRANCH  13  21
BRANCH  14  25
ATOM     25  C   UNL     1      10.494  -8.244  -7.969  0.00  0.00    +0.000 C 
ATOM     26  H   UNL     1      10.272  -7.717  -7.040  0.00  0.00    +0.000 HD
ATOM     27  H   UNL     1       9.810  -9.089  -8.059  0.00  0.00    +0.000 HD
BRANCH  25  28
ATOM     28  C   UNL     1      10.039  -7.401  -9.164  0.00  0.00    +0.000 C 
ATOM     29  H   UNL     1      10.914  -7.007  -9.692  0.00  0.00    +0.000 HD
ATOM     30  H   UNL     1       9.470  -8.020  -9.868  0.00  0.00    +0.000 HD
BRANCH  28  32
ATOM     31  O   UNL     1       8.781  -5.375  -9.565  0.00  0.00    +0.000 OA
ATOM     32  C   UNL     1       9.171  -6.222  -8.762  0.00  0.00    +0.000 C 
BRANCH  32  33
ATOM     33  C   UNL     1       8.805  -6.136  -7.303  0.00  0.00    +0.000 C 
ATOM     34  H   UNL     1       8.815  -5.091  -6.984  0.00  0.00    +0.000 HD
ATOM     35  H   UNL     1       9.516  -6.719  -6.712  0.00  0.00    +0.000 HD
ATOM     36  H   UNL     1       7.801  -6.543  -7.150  0.00  0.00    +0.000 HD
ENDBRANCH  32  33
ENDBRANCH  28  32
ENDBRANCH  25  28
ENDBRANCH  14  25
ENDBRANCH   2  12
BRANCH   3  37
ATOM     37  C   UNL     1      12.772 -12.952  -6.882  0.00  0.00    +0.000 C 
ATOM     38  H   UNL     1      13.624 -12.294  -7.091  0.00  0.00    +0.000 HD
ATOM     39  H   UNL     1      13.120 -13.825  -6.324  0.00  0.00    +0.000 HD
ATOM     40  H   UNL     1      12.475 -13.366  -7.855  0.00  0.00    +0.000 HD
ENDBRANCH   3  37
BRANCH   3  41
ATOM     41  C   UNL     1      11.956 -11.831  -4.802  0.00  0.00    +0.000 C 
ATOM     42  H   UNL     1      12.339 -10.810  -4.828  0.00  0.00    +0.000 HD
BRANCH  41  43
ATOM     43  C   UNL     1      13.057 -12.742  -4.287  0.00  0.00    +0.000 A 
ATOM     44  C   UNL     1      14.358 -12.255  -4.151  0.00  0.00    +0.000 A 
ATOM     45  C   UNL     1      12.769 -14.065  -3.949  0.00  0.00    +0.000 A 
ATOM     46  C   UNL     1      15.369 -13.091  -3.677  0.00  0.00    +0.000 A 
ATOM     47  C   UNL     1      13.780 -14.900  -3.476  0.00  0.00    +0.000 A 
ATOM     48  C   UNL     1      15.080 -14.413  -3.340  0.00  0.00    +0.000 A 
BRANCH  46  50
ATOM     49  O   UNL     1      17.684 -13.042  -4.165  0.00  0.00    +0.000 OA
ATOM     50  C   UNL     1      16.729 -12.583  -3.535  0.00  0.00    +0.000 C 
ATOM     51  H   UNL     1      16.889 -11.745  -2.839  0.00  0.00    +0.000 HD
ENDBRANCH  46  50
BRANCH  47  53
ATOM     52  O   UNL     1      13.836 -16.796  -2.062  0.00  0.00    +0.000 OA
ATOM     53  C   UNL     1      13.478 -16.283  -3.124  0.00  0.00    +0.000 C 
ATOM     54  H   UNL     1      12.905 -16.881  -3.850  0.00  0.00    +0.000 HD
ENDBRANCH  47  53
BRANCH  48  55
ATOM     55  O   UNL     1      16.070 -15.232  -2.877  0.00  0.00    +0.000 OA
ATOM     56  H   UNL     1      15.698 -16.084  -2.600  0.00  0.00    +0.000 HD
ENDBRANCH  48  55
BRANCH  45  57
ATOM     57  O   UNL     1      11.496 -14.537  -4.083  0.00  0.00    +0.000 OA
ATOM     58  H   UNL     1      11.414 -15.433  -3.724  0.00  0.00    +0.000 HD
ENDBRANCH  45  57
BRANCH  44  59
ATOM     59  O   UNL     1      14.636 -10.961  -4.481  0.00  0.00    +0.000 OA
ATOM     60  H   UNL     1      15.488 -10.895  -4.942  0.00  0.00    +0.000 HD
ENDBRANCH  44  59
ENDBRANCH  41  43
BRANCH  41  61
ATOM     61  C   UNL     1      10.693 -11.835  -3.909  0.00  0.00    +0.000 C 
ATOM     62  H   UNL     1       9.902 -11.231  -4.369  0.00  0.00    +0.000 HD
ATOM     63  H   UNL     1      10.290 -12.840  -3.759  0.00  0.00    +0.000 HD
BRANCH  61  64
ATOM     64  C   UNL     1      10.892 -11.296  -2.475  0.00  0.00    +0.000 C 
ATOM     65  H   UNL     1      11.585 -11.951  -1.936  0.00  0.00    +0.000 HD
BRANCH  64  66
ATOM     66  C   UNL     1      11.463  -9.878  -2.459  0.00  0.00    +0.000 C 
ATOM     67  H   UNL     1      12.165  -9.712  -3.279  0.00  0.00    +0.000 HD
ATOM     68  H   UNL     1      12.016  -9.698  -1.530  0.00  0.00    +0.000 HD
ATOM     69  H   UNL     1      10.667  -9.130  -2.518  0.00  0.00    +0.000 HD
ENDBRANCH  64  66
BRANCH  64  70
ATOM     70  C   UNL     1       9.556 -11.320  -1.727  0.00  0.00    +0.000 C 
ATOM     71  H   UNL     1       9.660 -10.924  -0.711  0.00  0.00    +0.000 HD
ATOM     72  H   UNL     1       9.170 -12.343  -1.653  0.00  0.00    +0.000 HD
ATOM     73  H   UNL     1       8.804 -10.719  -2.250  0.00  0.00    +0.000 HD
ENDBRANCH  64  70
ENDBRANCH  61  64
ENDBRANCH  41  61
ENDBRANCH   3  41
TORSDOF 19
ENDMDL
MODEL 2
REMARK VINA RESULT:    -5.817      0.425      2.258
REMARK INTER + INTRA:         -12.323
REMARK INTER:                 -11.041
REMARK INTRA:                  -1.283
REMARK UNBOUND:                -1.575
REMARK  Name = 10390702
REMARK  19 active torsions:
REMARK  status: ('A' for Active; 'I' for Inactive)
REMARK    1  A    between atoms: O_3  and  C_26
REMARK    2  A    between atoms: O_4  and  C_27
REMARK    3  A    between atoms: O_5  and  C_33
REMARK    4  A    between atoms: C_8  and  C_11
REMARK    5  A    between atoms: C_9  and  C_14
REMARK    6  A    between atoms: C_9  and  C_15
REMARK    7  A    between atoms: C_10  and  C_13
REMARK    8  A    between atoms: C_12  and  C_18
REMARK    9  A    between atoms: C_12  and  C_20
REMARK   10  A    between atoms: C_13  and  C_21
REMARK   11  A    between atoms: C_18  and  C_22
REMARK   12  A    between atoms: C_18  and  C_23
REMARK   13  A    between atoms: C_21  and  C_25
REMARK   14  A    between atoms: C_22  and  C_24
REMARK   15  A    between atoms: C_24  and  C_28
REMARK   16  A    between atoms: C_24  and  C_29
REMARK   17  A    between atoms: C_25  and  C_30
REMARK   18  A    between atoms: C_31  and  C_35
REMARK   19  A    between atoms: C_32  and  C_34
REMARK                            x       y       z     vdW  Elec       q    Type
REMARK                         _______ _______ _______ _____ _____    ______ ____
ROOT
ATOM      1  O   UNL     1       9.733 -10.997  -9.107  0.00  0.00    +0.000 OA
ATOM      2  C   UNL     1      11.033 -10.985  -7.055  0.00  0.00    +0.000 C 
ATOM      3  C   UNL     1      11.496 -12.244  -6.276  0.00  0.00    +0.000 C 
ATOM      4  C   UNL     1      10.247 -13.149  -6.344  0.00  0.00    +0.000 C 
ATOM      5  C   UNL     1      10.111 -11.584  -8.100  0.00  0.00    +0.000 C 
ATOM      6  C   UNL     1       9.707 -12.995  -7.761  0.00  0.00    +0.000 C 
ATOM      7  H   UNL     1      10.342 -10.433  -6.419  0.00  0.00    +0.000 HD
ATOM      8  H   UNL     1      10.429 -14.219  -6.299  0.00  0.00    +0.000 HD
ATOM      9  H   UNL     1       9.404 -12.892  -5.703  0.00  0.00    +0.000 HD
ATOM     10  H   UNL     1      10.193 -13.680  -8.462  0.00  0.00    +0.000 HD
ATOM     11  H   UNL     1       8.622 -13.112  -7.802  0.00  0.00    +0.000 HD
ENDROOT
BRANCH   2  12
ATOM     12  C   UNL     1      12.121 -10.132  -7.628  0.00  0.00    +0.000 C 
ATOM     13  C   UNL     1      12.659  -8.961  -6.860  0.00  0.00    +0.000 C 
ATOM     14  C   UNL     1      11.793  -8.735  -8.064  0.00  0.00    +0.000 C 
ATOM     15  H   UNL     1      12.780 -10.664  -8.302  0.00  0.00    +0.000 HD
ATOM     16  H   UNL     1      12.255  -8.385  -8.981  0.00  0.00    +0.000 HD
BRANCH  13  17
ATOM     17  C   UNL     1      12.093  -8.712  -5.503  0.00  0.00    +0.000 C 
ATOM     18  H   UNL     1      12.178  -9.634  -4.913  0.00  0.00    +0.000 HD
ATOM     19  H   UNL     1      12.546  -7.939  -4.884  0.00  0.00    +0.000 HD
ATOM     20  H   UNL     1      11.024  -8.502  -5.580  0.00  0.00    +0.000 HD
ENDBRANCH  13  17
BRANCH  13  21
ATOM     21  C   UNL     1      14.106  -8.622  -6.979  0.00  0.00    +0.000 C 
ATOM     22  H   UNL     1      14.643  -9.407  -7.523  0.00  0.00    +0.000 HD
ATOM     23  H   UNL     1      14.238  -7.679  -7.519  0.00  0.00    +0.000 HD
ATOM     24  H   UNL     1      14.587  -8.510  -6.000  0.00  0.00    +0.000 HD
ENDBRANCH  13  21
BRANCH  14  25
ATOM     25  C   UNL     1      10.400  -8.245  -7.911  0.00  0.00    +0.000 C 
ATOM     26  H   UNL     1      10.165  -7.708  -6.990  0.00  0.00    +0.000 HD
ATOM     27  H   UNL     1       9.729  -9.101  -7.993  0.00  0.00    +0.000 HD
BRANCH  25  28
ATOM     28  C   UNL     1       9.939  -7.424  -9.119  0.00  0.00    +0.000 C 
ATOM     29  H   UNL     1      10.811  -7.105  -9.702  0.00  0.00    +0.000 HD
ATOM     30  H   UNL     1       9.303  -8.035  -9.770  0.00  0.00    +0.000 HD
BRANCH  28  32
ATOM     31  O   UNL     1       8.819  -5.324  -9.545  0.00  0.00    +0.000 OA
ATOM     32  C   UNL     1       9.162  -6.180  -8.730  0.00  0.00    +0.000 C 
BRANCH  32  33
ATOM     33  C   UNL     1       8.825  -6.040  -7.268  0.00  0.00    +0.000 C 
ATOM     34  H   UNL     1       8.908  -4.991  -6.972  0.00  0.00    +0.000 HD
ATOM     35  H   UNL     1       9.506  -6.656  -6.674  0.00  0.00    +0.000 HD
ATOM     36  H   UNL     1       7.799  -6.376  -7.091  0.00  0.00    +0.000 HD
ENDBRANCH  32  33
ENDBRANCH  28  32
ENDBRANCH  25  28
ENDBRANCH  14  25
ENDBRANCH   2  12
BRANCH   3  37
ATOM     37  C   UNL     1      12.703 -12.960  -6.912  0.00  0.00    +0.000 C 
ATOM     38  H   UNL     1      13.044 -12.477  -7.835  0.00  0.00    +0.000 HD
ATOM     39  H   UNL     1      13.556 -13.104  -6.244  0.00  0.00    +0.000 HD
ATOM     40  H   UNL     1      12.423 -13.982  -7.201  0.00  0.00    +0.000 HD
ENDBRANCH   3  37
BRANCH   3  41
ATOM     41  C   UNL     1      11.833 -11.907  -4.818  0.00  0.00    +0.000 C 
ATOM     42  H   UNL     1      12.210 -10.883  -4.808  0.00  0.00    +0.000 HD
BRANCH  41  43
ATOM     43  C   UNL     1      12.930 -12.825  -4.305  0.00  0.00    +0.000 A 
ATOM     44  C   UNL     1      12.635 -14.150  -3.980  0.00  0.00    +0.000 A 
ATOM     45  C   UNL     1      14.231 -12.344  -4.158  0.00  0.00    +0.000 A 
ATOM     46  C   UNL     1      13.642 -14.993  -3.510  0.00  0.00    +0.000 A 
ATOM     47  C   UNL     1      15.237 -13.186  -3.687  0.00  0.00    +0.000 A 
ATOM     48  C   UNL     1      14.943 -14.511  -3.363  0.00  0.00    +0.000 A 
BRANCH  46  50
ATOM     49  O   UNL     1      13.883 -17.337  -3.716  0.00  0.00    +0.000 OA
ATOM     50  C   UNL     1      13.335 -16.378  -3.171  0.00  0.00    +0.000 C 
ATOM     51  H   UNL     1      12.586 -16.554  -2.382  0.00  0.00    +0.000 HD
ENDBRANCH  46  50
BRANCH  47  53
ATOM     52  O   UNL     1      17.345 -13.040  -2.621  0.00  0.00    +0.000 OA
ATOM     53  C   UNL     1      16.597 -12.683  -3.533  0.00  0.00    +0.000 C 
ATOM     54  H   UNL     1      16.956 -11.949  -4.273  0.00  0.00    +0.000 HD
ENDBRANCH  47  53
BRANCH  48  55
ATOM     55  O   UNL     1      15.928 -15.336  -2.902  0.00  0.00    +0.000 OA
ATOM     56  H   UNL     1      16.788 -14.887  -2.944  0.00  0.00    +0.000 HD
ENDBRANCH  48  55
BRANCH  45  57
ATOM     57  O   UNL     1      14.515 -11.048  -4.475  0.00  0.00    +0.000 OA
ATOM     58  H   UNL     1      14.967 -10.598  -3.745  0.00  0.00    +0.000 HD
ENDBRANCH  45  57
BRANCH  44  59
ATOM     59  O   UNL     1      11.362 -14.617  -4.126  0.00  0.00    +0.000 OA
ATOM     60  H   UNL     1      11.116 -15.195  -3.386  0.00  0.00    +0.000 HD
ENDBRANCH  44  59
ENDBRANCH  41  43
BRANCH  41  61
ATOM     61  C   UNL     1      10.552 -11.944  -3.952  0.00  0.00    +0.000 C 
ATOM     62  H   UNL     1       9.777 -11.307  -4.395  0.00  0.00    +0.000 HD
ATOM     63  H   UNL     1      10.134 -12.950  -3.865  0.00  0.00    +0.000 HD
BRANCH  61  64
ATOM     64  C   UNL     1      10.727 -11.486  -2.488  0.00  0.00    +0.000 C 
ATOM     65  H   UNL     1      11.434 -12.153  -1.982  0.00  0.00    +0.000 HD
BRANCH  64  66
ATOM     66  C   UNL     1      11.257 -10.056  -2.383  0.00  0.00    +0.000 C 
ATOM     67  H   UNL     1      10.757  -9.493  -1.593  0.00  0.00    +0.000 HD
ATOM     68  H   UNL     1      11.080  -9.512  -3.318  0.00  0.00    +0.000 HD
ATOM     69  H   UNL     1      12.336 -10.046  -2.196  0.00  0.00    +0.000 HD
ENDBRANCH  64  66
BRANCH  64  70
ATOM     70  C   UNL     1       9.387 -11.591  -1.753  0.00  0.00    +0.000 C 
ATOM     71  H   UNL     1       9.474 -11.252  -0.715  0.00  0.00    +0.000 HD
ATOM     72  H   UNL     1       9.029 -12.626  -1.743  0.00  0.00    +0.000 HD
ATOM     73  H   UNL     1       8.622 -10.981  -2.246  0.00  0.00    +0.000 HD
ENDBRANCH  64  70
ENDBRANCH  61  64
ENDBRANCH  41  61
ENDBRANCH   3  41
TORSDOF 19
ENDMDL
MODEL 3
REMARK VINA RESULT:    -5.437      2.918      5.483
REMARK INTER + INTRA:         -11.622
REMARK INTER:                 -10.520
REMARK INTRA:                  -1.102
REMARK UNBOUND:                -1.575
REMARK  Name = 10390702
REMARK  19 active torsions:
REMARK  status: ('A' for Active; 'I' for Inactive)
REMARK    1  A    between atoms: O_3  and  C_26
REMARK    2  A    between atoms: O_4  and  C_27
REMARK    3  A    between atoms: O_5  and  C_33
REMARK    4  A    between atoms: C_8  and  C_11
REMARK    5  A    between atoms: C_9  and  C_14
REMARK    6  A    between atoms: C_9  and  C_15
REMARK    7  A    between atoms: C_10  and  C_13
REMARK    8  A    between atoms: C_12  and  C_18
REMARK    9  A    between atoms: C_12  and  C_20
REMARK   10  A    between atoms: C_13  and  C_21
REMARK   11  A    between atoms: C_18  and  C_22
REMARK   12  A    between atoms: C_18  and  C_23
REMARK   13  A    between atoms: C_21  and  C_25
REMARK   14  A    between atoms: C_22  and  C_24
REMARK   15  A    between atoms: C_24  and  C_28
REMARK   16  A    between atoms: C_24  and  C_29
REMARK   17  A    between atoms: C_25  and  C_30
REMARK   18  A    between atoms: C_31  and  C_35
REMARK   19  A    between atoms: C_32  and  C_34
REMARK                            x       y       z     vdW  Elec       q    Type
REMARK                         _______ _______ _______ _____ _____    ______ ____
ROOT
ATOM      1  O   UNL     1      13.744  -9.677  -9.032  0.00  0.00    +0.000 OA
ATOM      2  C   UNL     1      13.169 -10.963  -7.053  0.00  0.00    +0.000 C 
ATOM      3  C   UNL     1      12.865 -10.370  -5.652  0.00  0.00    +0.000 C 
ATOM      4  C   UNL     1      13.939  -9.269  -5.521  0.00  0.00    +0.000 C 
ATOM      5  C   UNL     1      13.653  -9.743  -7.812  0.00  0.00    +0.000 C 
ATOM      6  C   UNL     1      14.013  -8.605  -6.892  0.00  0.00    +0.000 C 
ATOM      7  H   UNL     1      14.074 -11.564  -6.972  0.00  0.00    +0.000 HD
ATOM      8  H   UNL     1      13.684  -8.424  -4.888  0.00  0.00    +0.000 HD
ATOM      9  H   UNL     1      14.962  -9.586  -5.318  0.00  0.00    +0.000 HD
ATOM     10  H   UNL     1      13.269  -7.810  -7.003  0.00  0.00    +0.000 HD
ATOM     11  H   UNL     1      15.013  -8.226  -7.110  0.00  0.00    +0.000 HD
ENDROOT
BRANCH   2  12
ATOM     12  C   UNL     1      12.039 -11.679  -7.721  0.00  0.00    +0.000 C 
ATOM     13  C   UNL     1      11.983 -13.179  -7.732  0.00  0.00    +0.000 C 
ATOM     14  C   UNL     1      12.306 -12.431  -8.992  0.00  0.00    +0.000 C 
ATOM     15  H   UNL     1      11.111 -11.122  -7.723  0.00  0.00    +0.000 HD
ATOM     16  H   UNL     1      11.552 -12.368  -9.769  0.00  0.00    +0.000 HD
BRANCH  13  17
ATOM     17  C   UNL     1      13.073 -13.910  -7.023  0.00  0.00    +0.000 C 
ATOM     18  H   UNL     1      12.631 -14.487  -6.201  0.00  0.00    +0.000 HD
ATOM     19  H   UNL     1      13.667 -14.629  -7.585  0.00  0.00    +0.000 HD
ATOM     20  H   UNL     1      13.756 -13.197  -6.557  0.00  0.00    +0.000 HD
ENDBRANCH  13  17
BRANCH  13  21
ATOM     21  C   UNL     1      10.656 -13.854  -7.653  0.00  0.00    +0.000 C 
ATOM     22  H   UNL     1      10.628 -14.729  -8.310  0.00  0.00    +0.000 HD
ATOM     23  H   UNL     1      10.453 -14.187  -6.629  0.00  0.00    +0.000 HD
ATOM     24  H   UNL     1       9.836 -13.190  -7.950  0.00  0.00    +0.000 HD
ENDBRANCH  13  21
BRANCH  14  25
ATOM     25  C   UNL     1      13.685 -12.439  -9.542  0.00  0.00    +0.000 C 
ATOM     26  H   UNL     1      14.463 -12.876  -8.914  0.00  0.00    +0.000 HD
ATOM     27  H   UNL     1      13.964 -11.410  -9.772  0.00  0.00    +0.000 HD
BRANCH  25  28
ATOM     28  C   UNL     1      13.745 -13.053 -10.944  0.00  0.00    +0.000 C 
ATOM     29  H   UNL     1      14.742 -12.898 -11.371  0.00  0.00    +0.000 HD
ATOM     30  H   UNL     1      13.564 -14.133 -10.891  0.00  0.00    +0.000 HD
BRANCH  28  32
ATOM     31  O   UNL     1      11.798 -13.092 -12.377  0.00  0.00    +0.000 OA
ATOM     32  C   UNL     1      12.733 -12.449 -11.901  0.00  0.00    +0.000 C 
BRANCH  32  33
ATOM     33  C   UNL     1      12.933 -10.996 -12.246  0.00  0.00    +0.000 C 
ATOM     34  H   UNL     1      12.245 -10.712 -13.046  0.00  0.00    +0.000 HD
ATOM     35  H   UNL     1      13.967 -10.833 -12.560  0.00  0.00    +0.000 HD
ATOM     36  H   UNL     1      12.728 -10.376 -11.368  0.00  0.00    +0.000 HD
ENDBRANCH  32  33
ENDBRANCH  28  32
ENDBRANCH  25  28
ENDBRANCH  14  25
ENDBRANCH   2  12
BRANCH   3  37
ATOM     37  C   UNL     1      11.458  -9.752  -5.531  0.00  0.00    +0.000 C 
ATOM     38  H   UNL     1      11.332  -9.162  -4.616  0.00  0.00    +0.000 HD
ATOM     39  H   UNL     1      11.143  -9.156  -6.391  0.00  0.00    +0.000 HD
ATOM     40  H   UNL     1      10.703 -10.548  -5.474  0.00  0.00    +0.000 HD
ENDBRANCH   3  37
BRANCH   3  41
ATOM     41  C   UNL     1      13.040 -11.421  -4.549  0.00  0.00    +0.000 C 
ATOM     42  H   UNL     1      13.057 -12.396  -5.040  0.00  0.00    +0.000 HD
BRANCH  41  43
ATOM     43  C   UNL     1      11.858 -11.387  -3.596  0.00  0.00    +0.000 A 
ATOM     44  C   UNL     1      11.734 -10.346  -2.674  0.00  0.00    +0.000 A 
ATOM     45  C   UNL     1      10.895 -12.396  -3.640  0.00  0.00    +0.000 A 
ATOM     46  C   UNL     1      10.649 -10.314  -1.800  0.00  0.00    +0.000 A 
ATOM     47  C   UNL     1       9.810 -12.365  -2.765  0.00  0.00    +0.000 A 
ATOM     48  C   UNL     1       9.687 -11.323  -1.845  0.00  0.00    +0.000 A 
BRANCH  46  50
ATOM     49  O   UNL     1      10.230  -9.411   0.346  0.00  0.00    +0.000 OA
ATOM     50  C   UNL     1      10.519  -9.226  -0.837  0.00  0.00    +0.000 C 
ATOM     51  H   UNL     1      10.704  -8.202  -1.199  0.00  0.00    +0.000 HD
ENDBRANCH  46  50
BRANCH  47  53
ATOM     52  O   UNL     1       8.400 -14.004  -1.805  0.00  0.00    +0.000 OA
ATOM     53  C   UNL     1       8.805 -13.420  -2.812  0.00  0.00    +0.000 C 
ATOM     54  H   UNL     1       8.400 -13.696  -3.799  0.00  0.00    +0.000 HD
ENDBRANCH  47  53
BRANCH  48  55
ATOM     55  O   UNL     1       8.624 -11.292  -0.988  0.00  0.00    +0.000 OA
ATOM     56  H   UNL     1       8.255 -12.183  -0.880  0.00  0.00    +0.000 HD
ENDBRANCH  48  55
BRANCH  45  57
ATOM     57  O   UNL     1      11.019 -13.413  -4.542  0.00  0.00    +0.000 OA
ATOM     58  H   UNL     1      11.669 -13.196  -5.227  0.00  0.00    +0.000 HD
ENDBRANCH  45  57
BRANCH  44  59
ATOM     59  O   UNL     1      12.677  -9.361  -2.635  0.00  0.00    +0.000 OA
ATOM     60  H   UNL     1      13.206  -9.418  -1.823  0.00  0.00    +0.000 HD
ENDBRANCH  44  59
ENDBRANCH  41  43
BRANCH  41  61
ATOM     61  C   UNL     1      14.401 -11.229  -3.841  0.00  0.00    +0.000 C 
ATOM     62  H   UNL     1      14.943 -10.384  -4.284  0.00  0.00    +0.000 HD
ATOM     63  H   UNL     1      14.292 -11.021  -2.773  0.00  0.00    +0.000 HD
BRANCH  61  64
ATOM     64  C   UNL     1      15.351 -12.445  -3.888  0.00  0.00    +0.000 C 
ATOM     65  H   UNL     1      16.126 -12.329  -3.121  0.00  0.00    +0.000 HD
BRANCH  64  66
ATOM     66  C   UNL     1      14.622 -13.765  -3.635  0.00  0.00    +0.000 C 
ATOM     67  H   UNL     1      14.896 -14.528  -4.367  0.00  0.00    +0.000 HD
ATOM     68  H   UNL     1      13.538 -13.626  -3.716  0.00  0.00    +0.000 HD
ATOM     69  H   UNL     1      14.832 -14.147  -2.631  0.00  0.00    +0.000 HD
ENDBRANCH  64  66
BRANCH  64  70
ATOM     70  C   UNL     1      16.051 -12.498  -5.249  0.00  0.00    +0.000 C 
ATOM     71  H   UNL     1      17.141 -12.513  -5.136  0.00  0.00    +0.000 HD
ATOM     72  H   UNL     1      15.786 -11.627  -5.857  0.00  0.00    +0.000 HD
ATOM     73  H   UNL     1      15.756 -13.394  -5.806  0.00  0.00    +0.000 HD
ENDBRANCH  64  70
ENDBRANCH  61  64
ENDBRANCH  41  61
ENDBRANCH   3  41
TORSDOF 19
ENDMDL
MODEL 4
REMARK VINA RESULT:    -5.259      3.580      5.750
REMARK INTER + INTRA:         -11.292
REMARK INTER:                  -9.774
REMARK INTRA:                  -1.518
REMARK UNBOUND:                -1.575
REMARK  Name = 10390702
REMARK  19 active torsions:
REMARK  status: ('A' for Active; 'I' for Inactive)
REMARK    1  A    between atoms: O_3  and  C_26
REMARK    2  A    between atoms: O_4  and  C_27
REMARK    3  A    between atoms: O_5  and  C_33
REMARK    4  A    between atoms: C_8  and  C_11
REMARK    5  A    between atoms: C_9  and  C_14
REMARK    6  A    between atoms: C_9  and  C_15
REMARK    7  A    between atoms: C_10  and  C_13
REMARK    8  A    between atoms: C_12  and  C_18
REMARK    9  A    between atoms: C_12  and  C_20
REMARK   10  A    between atoms: C_13  and  C_21
REMARK   11  A    between atoms: C_18  and  C_22
REMARK   12  A    between atoms: C_18  and  C_23
REMARK   13  A    between atoms: C_21  and  C_25
REMARK   14  A    between atoms: C_22  and  C_24
REMARK   15  A    between atoms: C_24  and  C_28
REMARK   16  A    between atoms: C_24  and  C_29
REMARK   17  A    between atoms: C_25  and  C_30
REMARK   18  A    between atoms: C_31  and  C_35
REMARK   19  A    between atoms: C_32  and  C_34
REMARK                            x       y       z     vdW  Elec       q    Type
REMARK                         _______ _______ _______ _____ _____    ______ ____
ROOT
ATOM      1  O   UNL     1      13.082 -11.856 -13.266  0.00  0.00    +0.000 OA
ATOM      2  C   UNL     1      12.858 -10.640 -11.175  0.00  0.00    +0.000 C 
ATOM      3  C   UNL     1      12.272 -11.215  -9.859  0.00  0.00    +0.000 C 
ATOM      4  C   UNL     1      11.060 -12.025 -10.366  0.00  0.00    +0.000 C 
ATOM      5  C   UNL     1      12.559 -11.751 -12.163  0.00  0.00    +0.000 C 
ATOM      6  C   UNL     1      11.537 -12.723 -11.635  0.00  0.00    +0.000 C 
ATOM      7  H   UNL     1      12.201  -9.840 -11.513  0.00  0.00    +0.000 HD
ATOM      8  H   UNL     1      10.761 -12.872  -9.755  0.00  0.00    +0.000 HD
ATOM      9  H   UNL     1      10.177 -11.467 -10.679  0.00  0.00    +0.000 HD
ATOM     10  H   UNL     1      12.032 -13.675 -11.418  0.00  0.00    +0.000 HD
ATOM     11  H   UNL     1      10.727 -12.868 -12.352  0.00  0.00    +0.000 HD
ENDROOT
BRANCH   2  12
ATOM     12  C   UNL     1      14.301 -10.245 -11.132  0.00  0.00    +0.000 C 
ATOM     13  C   UNL     1      14.697  -8.831 -10.821  0.00  0.00    +0.000 C 
ATOM     14  C   UNL     1      14.843  -9.361 -12.216  0.00  0.00    +0.000 C 
ATOM     15  H   UNL     1      14.964 -11.049 -10.841  0.00  0.00    +0.000 HD
ATOM     16  H   UNL     1      15.837  -9.591 -12.586  0.00  0.00    +0.000 HD
BRANCH  13  17
ATOM     17  C   UNL     1      13.602  -7.862 -10.525  0.00  0.00    +0.000 C 
ATOM     18  H   UNL     1      13.743  -7.473  -9.509  0.00  0.00    +0.000 HD
ATOM     19  H   UNL     1      13.507  -6.978 -11.155  0.00  0.00    +0.000 HD
ATOM     20  H   UNL     1      12.641  -8.379 -10.518  0.00  0.00    +0.000 HD
ENDBRANCH  13  17
BRANCH  13  21
ATOM     21  C   UNL     1      15.944  -8.584 -10.044  0.00  0.00    +0.000 C 
ATOM     22  H   UNL     1      16.740  -9.266 -10.362  0.00  0.00    +0.000 HD
ATOM     23  H   UNL     1      16.295  -7.557 -10.192  0.00  0.00    +0.000 HD
ATOM     24  H   UNL     1      15.797  -8.728  -8.967  0.00  0.00    +0.000 HD
ENDBRANCH  13  21
BRANCH  14  25
ATOM     25  C   UNL     1      13.930  -8.910 -13.296  0.00  0.00    +0.000 C 
ATOM     26  H   UNL     1      12.968  -8.499 -12.987  0.00  0.00    +0.000 HD
ATOM     27  H   UNL     1      13.746  -9.756 -13.960  0.00  0.00    +0.000 HD
BRANCH  25  28
ATOM     28  C   UNL     1      14.615  -7.947 -14.270  0.00  0.00    +0.000 C 
ATOM     29  H   UNL     1      15.670  -7.833 -13.994  0.00  0.00    +0.000 HD
ATOM     30  H   UNL     1      14.575  -8.348 -15.289  0.00  0.00    +0.000 HD
BRANCH  28  32
ATOM     31  O   UNL     1      14.060  -5.792 -13.325  0.00  0.00    +0.000 OA
ATOM     32  C   UNL     1      13.987  -6.565 -14.279  0.00  0.00    +0.000 C 
BRANCH  32  33
ATOM     33  C   UNL     1      13.254  -6.179 -15.537  0.00  0.00    +0.000 C 
ATOM     34  H   UNL     1      12.927  -7.080 -16.061  0.00  0.00    +0.000 HD
ATOM     35  H   UNL     1      13.912  -5.586 -16.178  0.00  0.00    +0.000 HD
ATOM     36  H   UNL     1      12.375  -5.579 -15.283  0.00  0.00    +0.000 HD
ENDBRANCH  32  33
ENDBRANCH  28  32
ENDBRANCH  25  28
ENDBRANCH  14  25
ENDBRANCH   2  12
BRANCH   3  37
ATOM     37  C   UNL     1      13.242 -12.138  -9.096  0.00  0.00    +0.000 C 
ATOM     38  H   UNL     1      13.749 -12.855  -9.752  0.00  0.00    +0.000 HD
ATOM     39  H   UNL     1      13.987 -11.619  -8.487  0.00  0.00    +0.000 HD
ATOM     40  H   UNL     1      12.688 -12.746  -8.368  0.00  0.00    +0.000 HD
ENDBRANCH   3  37
BRANCH   3  41
ATOM     41  C   UNL     1      11.811 -10.096  -8.916  0.00  0.00    +0.000 C 
ATOM     42  H   UNL     1      12.427  -9.223  -9.135  0.00  0.00    +0.000 HD
BRANCH  41  43
ATOM     43  C   UNL     1      12.045 -10.495  -7.469  0.00  0.00    +0.000 A 
ATOM     44  C   UNL     1      11.140 -11.339  -6.823  0.00  0.00    +0.000 A 
ATOM     45  C   UNL     1      13.164 -10.019  -6.786  0.00  0.00    +0.000 A 
ATOM     46  C   UNL     1      11.356 -11.706  -5.495  0.00  0.00    +0.000 A 
ATOM     47  C   UNL     1      13.379 -10.385  -5.458  0.00  0.00    +0.000 A 
ATOM     48  C   UNL     1      12.475 -11.229  -4.812  0.00  0.00    +0.000 A 
BRANCH  46  50
ATOM     49  O   UNL     1      10.017 -12.391  -3.669  0.00  0.00    +0.000 OA
ATOM     50  C   UNL     1      10.411 -12.588  -4.819  0.00  0.00    +0.000 C 
ATOM     51  H   UNL     1      10.034 -13.457  -5.382  0.00  0.00    +0.000 HD
ENDBRANCH  46  50
BRANCH  47  53
ATOM     52  O   UNL     1      14.827  -8.688  -4.668  0.00  0.00    +0.000 OA
ATOM     53  C   UNL     1      14.549  -9.887  -4.744  0.00  0.00    +0.000 C 
ATOM     54  H   UNL     1      15.204 -10.627  -4.258  0.00  0.00    +0.000 HD
ENDBRANCH  47  53
BRANCH  48  55
ATOM     55  O   UNL     1      12.686 -11.588  -3.512  0.00  0.00    +0.000 OA
ATOM     56  H   UNL     1      12.005 -12.216  -3.223  0.00  0.00    +0.000 HD
ENDBRANCH  48  55
BRANCH  45  57
ATOM     57  O   UNL     1      14.046  -9.194  -7.421  0.00  0.00    +0.000 OA
ATOM     58  H   UNL     1      14.951  -9.339  -7.107  0.00  0.00    +0.000 HD
ENDBRANCH  45  57
BRANCH  44  59
ATOM     59  O   UNL     1      10.048 -11.803  -7.495  0.00  0.00    +0.000 OA
ATOM     60  H   UNL     1      10.140 -11.659  -8.451  0.00  0.00    +0.000 HD
ENDBRANCH  44  59
ENDBRANCH  41  43
BRANCH  41  61
ATOM     61  C   UNL     1      10.340  -9.720  -9.215  0.00  0.00    +0.000 C 
ATOM     62  H   UNL     1      10.176  -9.664 -10.298  0.00  0.00    +0.000 HD
ATOM     63  H   UNL     1       9.632 -10.451  -8.816  0.00  0.00    +0.000 HD
BRANCH  61  64
ATOM     64  C   UNL     1       9.865  -8.377  -8.619  0.00  0.00    +0.000 C 
ATOM     65  H   UNL     1      10.486  -8.126  -7.753  0.00  0.00    +0.000 HD
BRANCH  64  66
ATOM     66  C   UNL     1       9.956  -7.228  -9.624  0.00  0.00    +0.000 C 
ATOM     67  H   UNL     1       9.148  -6.505  -9.489  0.00  0.00    +0.000 HD
ATOM     68  H   UNL     1       9.870  -7.608 -10.649  0.00  0.00    +0.000 HD
ATOM     69  H   UNL     1      10.915  -6.707  -9.544  0.00  0.00    +0.000 HD
ENDBRANCH  64  66
BRANCH  64  70
ATOM     70  C   UNL     1       8.420  -8.516  -8.128  0.00  0.00    +0.000 C 
ATOM     71  H   UNL     1       8.277  -9.448  -7.570  0.00  0.00    +0.000 HD
ATOM     72  H   UNL     1       7.721  -8.515  -8.971  0.00  0.00    +0.000 HD
ATOM     73  H   UNL     1       8.149  -7.683  -7.471  0.00  0.00    +0.000 HD
ENDBRANCH  64  70
ENDBRANCH  61  64
ENDBRANCH  41  61
ENDBRANCH   3  41
TORSDOF 19
ENDMDL
MODEL 5
REMARK VINA RESULT:    -5.192     24.062     27.341
REMARK INTER + INTRA:         -11.169
REMARK INTER:                  -9.760
REMARK INTRA:                  -1.410
REMARK UNBOUND:                -1.575
REMARK  Name = 10390702
REMARK  19 active torsions:
REMARK  status: ('A' for Active; 'I' for Inactive)
REMARK    1  A    between atoms: O_3  and  C_26
REMARK    2  A    between atoms: O_4  and  C_27
REMARK    3  A    between atoms: O_5  and  C_33
REMARK    4  A    between atoms: C_8  and  C_11
REMARK    5  A    between atoms: C_9  and  C_14
REMARK    6  A    between atoms: C_9  and  C_15
REMARK    7  A    between atoms: C_10  and  C_13
REMARK    8  A    between atoms: C_12  and  C_18
REMARK    9  A    between atoms: C_12  and  C_20
REMARK   10  A    between atoms: C_13  and  C_21
REMARK   11  A    between atoms: C_18  and  C_22
REMARK   12  A    between atoms: C_18  and  C_23
REMARK   13  A    between atoms: C_21  and  C_25
REMARK   14  A    between atoms: C_22  and  C_24
REMARK   15  A    between atoms: C_24  and  C_28
REMARK   16  A    between atoms: C_24  and  C_29
REMARK   17  A    between atoms: C_25  and  C_30
REMARK   18  A    between atoms: C_31  and  C_35
REMARK   19  A    between atoms: C_32  and  C_34
REMARK                            x       y       z     vdW  Elec       q    Type
REMARK                         _______ _______ _______ _____ _____    ______ ____
ROOT
ATOM      1  O   UNL     1       8.338  11.982  -2.489  0.00  0.00    +0.000 OA
ATOM      2  C   UNL     1       8.550  13.888  -3.981  0.00  0.00    +0.000 C 
ATOM      3  C   UNL     1       9.415  13.930  -5.268  0.00  0.00    +0.000 C 
ATOM      4  C   UNL     1      10.702  13.204  -4.823  0.00  0.00    +0.000 C 
ATOM      5  C   UNL     1       8.961  12.562  -3.370  0.00  0.00    +0.000 C 
ATOM      6  C   UNL     1      10.235  12.028  -3.972  0.00  0.00    +0.000 C 
ATOM      7  H   UNL     1       8.962  14.610  -3.278  0.00  0.00    +0.000 HD
ATOM      8  H   UNL     1      11.259  12.695  -5.604  0.00  0.00    +0.000 HD
ATOM      9  H   UNL     1      11.390  13.750  -4.176  0.00  0.00    +0.000 HD
ATOM     10  H   UNL     1       9.998  11.150  -4.581  0.00  0.00    +0.000 HD
ATOM     11  H   UNL     1      10.958  11.772  -3.195  0.00  0.00    +0.000 HD
ENDROOT
BRANCH   2  12
ATOM     12  C   UNL     1       7.073  14.028  -4.179  0.00  0.00    +0.000 C 
ATOM     13  C   UNL     1       6.404  15.361  -4.017  0.00  0.00    +0.000 C 
ATOM     14  C   UNL     1       6.203  14.291  -2.985  0.00  0.00    +0.000 C 
ATOM     15  H   UNL     1       6.659  13.316  -4.881  0.00  0.00    +0.000 HD
ATOM     16  H   UNL     1       5.251  13.774  -2.947  0.00  0.00    +0.000 HD
BRANCH  13  17
ATOM     17  C   UNL     1       7.272  16.529  -3.691  0.00  0.00    +0.000 C 
ATOM     18  H   UNL     1       8.047  16.616  -4.463  0.00  0.00    +0.000 HD
ATOM     19  H   UNL     1       6.816  17.516  -3.638  0.00  0.00    +0.000 HD
ATOM     20  H   UNL     1       7.801  16.348  -2.753  0.00  0.00    +0.000 HD
ENDBRANCH  13  17
BRANCH  13  21
ATOM     21  C   UNL     1       5.245  15.698  -4.892  0.00  0.00    +0.000 C 
ATOM     22  H   UNL     1       5.093  14.921  -5.648  0.00  0.00    +0.000 HD
ATOM     23  H   UNL     1       4.327  15.786  -4.301  0.00  0.00    +0.000 HD
ATOM     24  H   UNL     1       5.387  16.649  -5.420  0.00  0.00    +0.000 HD
ENDBRANCH  13  21
BRANCH  14  25
ATOM     25  C   UNL     1       6.838  14.403  -1.648  0.00  0.00    +0.000 C 
ATOM     26  H   UNL     1       7.522  15.240  -1.496  0.00  0.00    +0.000 HD
ATOM     27  H   UNL     1       7.378  13.476  -1.450  0.00  0.00    +0.000 HD
BRANCH  25  28
ATOM     28  C   UNL     1       5.810  14.363  -0.514  0.00  0.00    +0.000 C 
ATOM     29  H   UNL     1       6.057  15.125   0.234  0.00  0.00    +0.000 HD
ATOM     30  H   UNL     1       4.809  14.584  -0.903  0.00  0.00    +0.000 HD
BRANCH  28  32
ATOM     31  O   UNL     1       5.084  12.076  -0.216  0.00  0.00    +0.000 OA
ATOM     32  C   UNL     1       5.757  13.021   0.193  0.00  0.00    +0.000 C 
BRANCH  32  33
ATOM     33  C   UNL     1       6.585  12.899   1.446  0.00  0.00    +0.000 C 
ATOM     34  H   UNL     1       7.428  12.228   1.264  0.00  0.00    +0.000 HD
ATOM     35  H   UNL     1       5.964  12.514   2.260  0.00  0.00    +0.000 HD
ATOM     36  H   UNL     1       6.970  13.882   1.731  0.00  0.00    +0.000 HD
ENDBRANCH  32  33
ENDBRANCH  28  32
ENDBRANCH  25  28
ENDBRANCH  14  25
ENDBRANCH   2  12
BRANCH   3  37
ATOM     37  C   UNL     1       8.783  13.195  -6.467  0.00  0.00    +0.000 C 
ATOM     38  H   UNL     1       9.347  12.304  -6.763  0.00  0.00    +0.000 HD
ATOM     39  H   UNL     1       7.730  12.930  -6.339  0.00  0.00    +0.000 HD
ATOM     40  H   UNL     1       8.781  13.849  -7.349  0.00  0.00    +0.000 HD
ENDBRANCH   3  37
BRANCH   3  41
ATOM     41  C   UNL     1       9.730  15.372  -5.684  0.00  0.00    +0.000 C 
ATOM     42  H   UNL     1       8.887  15.986  -5.364  0.00  0.00    +0.000 HD
BRANCH  41  43
ATOM     43  C   UNL     1       9.848  15.472  -7.195  0.00  0.00    +0.000 A 
ATOM     44  C   UNL     1       8.753  15.885  -7.954  0.00  0.00    +0.000 A 
ATOM     45  C   UNL     1      11.052  15.151  -7.824  0.00  0.00    +0.000 A 
ATOM     46  C   UNL     1       8.861  15.978  -9.342  0.00  0.00    +0.000 A 
ATOM     47  C   UNL     1      11.160  15.243  -9.211  0.00  0.00    +0.000 A 
ATOM     48  C   UNL     1      10.065  15.657  -9.970  0.00  0.00    +0.000 A 
BRANCH  46  50
ATOM     49  O   UNL     1       6.612  15.867 -10.067  0.00  0.00    +0.000 OA
ATOM     50  C   UNL     1       7.716  16.409 -10.136  0.00  0.00    +0.000 C 
ATOM     51  H   UNL     1       7.861  17.266 -10.812  0.00  0.00    +0.000 HD
ENDBRANCH  46  50
BRANCH  47  53
ATOM     52  O   UNL     1      13.518  15.127  -9.359  0.00  0.00    +0.000 OA
ATOM     53  C   UNL     1      12.418  14.908  -9.868  0.00  0.00    +0.000 C 
ATOM     54  H   UNL     1      12.364  14.439 -10.864  0.00  0.00    +0.000 HD
ENDBRANCH  47  53
BRANCH  48  55
ATOM     55  O   UNL     1      10.171  15.747 -11.328  0.00  0.00    +0.000 OA
ATOM     56  H   UNL     1       9.575  16.435 -11.666  0.00  0.00    +0.000 HD
ENDBRANCH  48  55
BRANCH  45  57
ATOM     57  O   UNL     1      12.120  14.748  -7.078  0.00  0.00    +0.000 OA
ATOM     58  H   UNL     1      12.933  14.741  -7.605  0.00  0.00    +0.000 HD
ENDBRANCH  45  57
BRANCH  44  59
ATOM     59  O   UNL     1       7.578  16.198  -7.335  0.00  0.00    +0.000 OA
ATOM     60  H   UNL     1       7.737  16.717  -6.530  0.00  0.00    +0.000 HD
ENDBRANCH  44  59
ENDBRANCH  41  43
BRANCH  41  61
ATOM     61  C   UNL     1      10.988  15.878  -4.938  0.00  0.00    +0.000 C 
ATOM     62  H   UNL     1      11.598  15.030  -4.606  0.00  0.00    +0.000 HD
ATOM     63  H   UNL     1      11.622  16.508  -5.567  0.00  0.00    +0.000 HD
BRANCH  61  64
ATOM     64  C   UNL     1      10.715  16.749  -3.693  0.00  0.00    +0.000 C 
ATOM     65  H   UNL     1       9.651  17.010  -3.659  0.00  0.00    +0.000 HD
BRANCH  64  66
ATOM     66  C   UNL     1      11.074  16.034  -2.390  0.00  0.00    +0.000 C 
ATOM     67  H   UNL     1      11.708  15.161  -2.566  0.00  0.00    +0.000 HD
ATOM     68  H   UNL     1      10.169  15.669  -1.891  0.00  0.00    +0.000 HD
ATOM     69  H   UNL     1      11.585  16.708  -1.696  0.00  0.00    +0.000 HD
ENDBRANCH  64  66
BRANCH  64  70
ATOM     70  C   UNL     1      11.509  18.055  -3.796  0.00  0.00    +0.000 C 
ATOM     71  H   UNL     1      12.389  17.937  -4.437  0.00  0.00    +0.000 HD
ATOM     72  H   UNL     1      11.850  18.382  -2.808  0.00  0.00    +0.000 HD
ATOM     73  H   UNL     1      10.890  18.857  -4.215  0.00  0.00    +0.000 HD
ENDBRANCH  64  70
ENDBRANCH  61  64
ENDBRANCH  41  61
ENDBRANCH   3  41
TORSDOF 19
ENDMDL
MODEL 6
REMARK VINA RESULT:    -5.152     24.077     27.304
REMARK INTER + INTRA:         -11.094
REMARK INTER:                  -9.789
REMARK INTRA:                  -1.305
REMARK UNBOUND:                -1.575
REMARK  Name = 10390702
REMARK  19 active torsions:
REMARK  status: ('A' for Active; 'I' for Inactive)
REMARK    1  A    between atoms: O_3  and  C_26
REMARK    2  A    between atoms: O_4  and  C_27
REMARK    3  A    between atoms: O_5  and  C_33
REMARK    4  A    between atoms: C_8  and  C_11
REMARK    5  A    between atoms: C_9  and  C_14
REMARK    6  A    between atoms: C_9  and  C_15
REMARK    7  A    between atoms: C_10  and  C_13
REMARK    8  A    between atoms: C_12  and  C_18
REMARK    9  A    between atoms: C_12  and  C_20
REMARK   10  A    between atoms: C_13  and  C_21
REMARK   11  A    between atoms: C_18  and  C_22
REMARK   12  A    between atoms: C_18  and  C_23
REMARK   13  A    between atoms: C_21  and  C_25
REMARK   14  A    between atoms: C_22  and  C_24
REMARK   15  A    between atoms: C_24  and  C_28
REMARK   16  A    between atoms: C_24  and  C_29
REMARK   17  A    between atoms: C_25  and  C_30
REMARK   18  A    between atoms: C_31  and  C_35
REMARK   19  A    between atoms: C_32  and  C_34
REMARK                            x       y       z     vdW  Elec       q    Type
REMARK                         _______ _______ _______ _____ _____    ______ ____
ROOT
ATOM      1  O   UNL     1       8.313  12.013  -2.487  0.00  0.00    +0.000 OA
ATOM      2  C   UNL     1       8.532  13.907  -3.993  0.00  0.00    +0.000 C 
ATOM      3  C   UNL     1       9.393  13.935  -5.283  0.00  0.00    +0.000 C 
ATOM      4  C   UNL     1      10.677  13.204  -4.837  0.00  0.00    +0.000 C 
ATOM      5  C   UNL     1       8.937  12.583  -3.374  0.00  0.00    +0.000 C 
ATOM      6  C   UNL     1      10.205  12.037  -3.977  0.00  0.00    +0.000 C 
ATOM      7  H   UNL     1       8.951  14.631  -3.295  0.00  0.00    +0.000 HD
ATOM      8  H   UNL     1      11.229  12.686  -5.616  0.00  0.00    +0.000 HD
ATOM      9  H   UNL     1      11.370  13.750  -4.196  0.00  0.00    +0.000 HD
ATOM     10  H   UNL     1       9.961  11.156  -4.579  0.00  0.00    +0.000 HD
ATOM     11  H   UNL     1      10.929  11.781  -3.200  0.00  0.00    +0.000 HD
ENDROOT
BRANCH   2  12
ATOM     12  C   UNL     1       7.056  14.055  -4.186  0.00  0.00    +0.000 C 
ATOM     13  C   UNL     1       6.392  15.389  -4.011  0.00  0.00    +0.000 C 
ATOM     14  C   UNL     1       6.189  14.310  -2.989  0.00  0.00    +0.000 C 
ATOM     15  H   UNL     1       6.637  13.351  -4.895  0.00  0.00    +0.000 HD
ATOM     16  H   UNL     1       5.234  13.796  -2.954  0.00  0.00    +0.000 HD
BRANCH  13  17
ATOM     17  C   UNL     1       7.265  16.550  -3.676  0.00  0.00    +0.000 C 
ATOM     18  H   UNL     1       8.075  16.605  -4.414  0.00  0.00    +0.000 HD
ATOM     19  H   UNL     1       6.824  17.546  -3.667  0.00  0.00    +0.000 HD
ATOM     20  H   UNL     1       7.748  16.384  -2.711  0.00  0.00    +0.000 HD
ENDBRANCH  13  17
BRANCH  13  21
ATOM     21  C   UNL     1       5.233  15.739  -4.881  0.00  0.00    +0.000 C 
ATOM     22  H   UNL     1       4.345  15.168  -4.590  0.00  0.00    +0.000 HD
ATOM     23  H   UNL     1       4.997  16.806  -4.798  0.00  0.00    +0.000 HD
ATOM     24  H   UNL     1       5.430  15.528  -5.938  0.00  0.00    +0.000 HD
ENDBRANCH  13  21
BRANCH  14  25
ATOM     25  C   UNL     1       6.826  14.407  -1.651  0.00  0.00    +0.000 C 
ATOM     26  H   UNL     1       7.518  15.236  -1.495  0.00  0.00    +0.000 HD
ATOM     27  H   UNL     1       7.357  13.474  -1.460  0.00  0.00    +0.000 HD
BRANCH  25  28
ATOM     28  C   UNL     1       5.799  14.370  -0.516  0.00  0.00    +0.000 C 
ATOM     29  H   UNL     1       6.045  15.136   0.228  0.00  0.00    +0.000 HD
ATOM     30  H   UNL     1       4.798  14.587  -0.906  0.00  0.00    +0.000 HD
BRANCH  28  32
ATOM     31  O   UNL     1       5.077  12.083  -0.207  0.00  0.00    +0.000 OA
ATOM     32  C   UNL     1       5.750  13.030   0.197  0.00  0.00    +0.000 C 
BRANCH  32  33
ATOM     33  C   UNL     1       6.582  12.915   1.448  0.00  0.00    +0.000 C 
ATOM     34  H   UNL     1       5.952  13.091   2.324  0.00  0.00    +0.000 HD
ATOM     35  H   UNL     1       7.396  13.645   1.415  0.00  0.00    +0.000 HD
ATOM     36  H   UNL     1       7.010  11.911   1.516  0.00  0.00    +0.000 HD
ENDBRANCH  32  33
ENDBRANCH  28  32
ENDBRANCH  25  28
ENDBRANCH  14  25
ENDBRANCH   2  12
BRANCH   3  37
ATOM     37  C   UNL     1       8.752  13.197  -6.474  0.00  0.00    +0.000 C 
ATOM     38  H   UNL     1       8.208  13.869  -7.147  0.00  0.00    +0.000 HD
ATOM     39  H   UNL     1       9.442  12.582  -7.059  0.00  0.00    +0.000 HD
ATOM     40  H   UNL     1       8.006  12.477  -6.112  0.00  0.00    +0.000 HD
ENDBRANCH   3  37
BRANCH   3  41
ATOM     41  C   UNL     1       9.716  15.373  -5.709  0.00  0.00    +0.000 C 
ATOM     42  H   UNL     1       8.888  15.997  -5.369  0.00  0.00    +0.000 HD
BRANCH  41  43
ATOM     43  C   UNL     1       9.797  15.469  -7.222  0.00  0.00    +0.000 A 
ATOM     44  C   UNL     1      10.975  15.115  -7.882  0.00  0.00    +0.000 A 
ATOM     45  C   UNL     1       8.694  15.911  -7.954  0.00  0.00    +0.000 A 
ATOM     46  C   UNL     1      11.049  15.202  -9.272  0.00  0.00    +0.000 A 
ATOM     47  C   UNL     1       8.769  16.000  -9.344  0.00  0.00    +0.000 A 
ATOM     48  C   UNL     1       9.946  15.645 -10.003  0.00  0.00    +0.000 A 
BRANCH  46  50
ATOM     49  O   UNL     1      13.398  15.020  -9.480  0.00  0.00    +0.000 OA
ATOM     50  C   UNL     1      12.280  14.832  -9.961  0.00  0.00    +0.000 C 
ATOM     51  H   UNL     1      12.185  14.355 -10.950  0.00  0.00    +0.000 HD
ENDBRANCH  46  50
BRANCH  47  53
ATOM     52  O   UNL     1       6.509  15.924 -10.042  0.00  0.00    +0.000 OA
ATOM     53  C   UNL     1       7.616  16.462 -10.108  0.00  0.00    +0.000 C 
ATOM     54  H   UNL     1       7.758  17.332 -10.770  0.00  0.00    +0.000 HD
ENDBRANCH  47  53
BRANCH  48  55
ATOM     55  O   UNL     1      10.019  15.731 -11.363  0.00  0.00    +0.000 OA
ATOM     56  H   UNL     1       9.247  15.305 -11.768  0.00  0.00    +0.000 HD
ENDBRANCH  48  55
BRANCH  45  57
ATOM     57  O   UNL     1       7.545  16.257  -7.306  0.00  0.00    +0.000 OA
ATOM     58  H   UNL     1       7.474  17.218  -7.205  0.00  0.00    +0.000 HD
ENDBRANCH  45  57
BRANCH  44  59
ATOM     59  O   UNL     1      12.050  14.682  -7.163  0.00  0.00    +0.000 OA
ATOM     60  H   UNL     1      12.881  14.981  -7.566  0.00  0.00    +0.000 HD
ENDBRANCH  44  59
ENDBRANCH  41  43
BRANCH  41  61
ATOM     61  C   UNL     1      10.998  15.864  -4.996  0.00  0.00    +0.000 C 
ATOM     62  H   UNL     1      11.658  15.016  -4.778  0.00  0.00    +0.000 HD
ATOM     63  H   UNL     1      11.568  16.572  -5.602  0.00  0.00    +0.000 HD
BRANCH  61  64
ATOM     64  C   UNL     1      10.772  16.611  -3.664  0.00  0.00    +0.000 C 
ATOM     65  H   UNL     1       9.734  16.471  -3.342  0.00  0.00    +0.000 HD
BRANCH  64  66
ATOM     66  C   UNL     1      11.691  16.109  -2.550  0.00  0.00    +0.000 C 
ATOM     67  H   UNL     1      11.418  16.526  -1.578  0.00  0.00    +0.000 HD
ATOM     68  H   UNL     1      12.727  16.411  -2.743  0.00  0.00    +0.000 HD
ATOM     69  H   UNL     1      11.673  15.017  -2.484  0.00  0.00    +0.000 HD
ENDBRANCH  64  66
BRANCH  64  70
ATOM     70  C   UNL     1      10.992  18.112  -3.873  0.00  0.00    +0.000 C 
ATOM     71  H   UNL     1      11.250  18.613  -2.933  0.00  0.00    +0.000 HD
ATOM     72  H   UNL     1      10.089  18.586  -4.272  0.00  0.00    +0.000 HD
ATOM     73  H   UNL     1      11.803  18.293  -4.587  0.00  0.00    +0.000 HD
ENDBRANCH  64  70
ENDBRANCH  61  64
ENDBRANCH  41  61
ENDBRANCH   3  41
TORSDOF 19
ENDMDL
MODEL 7
REMARK VINA RESULT:    -5.149     24.307     26.767
REMARK INTER + INTRA:         -11.088
REMARK INTER:                  -9.513
REMARK INTRA:                  -1.575
REMARK UNBOUND:                -1.575
REMARK  Name = 10390702
REMARK  19 active torsions:
REMARK  status: ('A' for Active; 'I' for Inactive)
REMARK    1  A    between atoms: O_3  and  C_26
REMARK    2  A    between atoms: O_4  and  C_27
REMARK    3  A    between atoms: O_5  and  C_33
REMARK    4  A    between atoms: C_8  and  C_11
REMARK    5  A    between atoms: C_9  and  C_14
REMARK    6  A    between atoms: C_9  and  C_15
REMARK    7  A    between atoms: C_10  and  C_13
REMARK    8  A    between atoms: C_12  and  C_18
REMARK    9  A    between atoms: C_12  and  C_20
REMARK   10  A    between atoms: C_13  and  C_21
REMARK   11  A    between atoms: C_18  and  C_22
REMARK   12  A    between atoms: C_18  and  C_23
REMARK   13  A    between atoms: C_21  and  C_25
REMARK   14  A    between atoms: C_22  and  C_24
REMARK   15  A    between atoms: C_24  and  C_28
REMARK   16  A    between atoms: C_24  and  C_29
REMARK   17  A    between atoms: C_25  and  C_30
REMARK   18  A    between atoms: C_31  and  C_35
REMARK   19  A    between atoms: C_32  and  C_34
REMARK                            x       y       z     vdW  Elec       q    Type
REMARK                         _______ _______ _______ _____ _____    ______ ____
ROOT
ATOM      1  O   UNL     1      11.100  13.001  -6.667  0.00  0.00    +0.000 OA
ATOM      2  C   UNL     1      10.061  14.266  -4.872  0.00  0.00    +0.000 C 
ATOM      3  C   UNL     1       8.962  13.734  -3.916  0.00  0.00    +0.000 C 
ATOM      4  C   UNL     1       8.048  12.942  -4.876  0.00  0.00    +0.000 C 
ATOM      5  C   UNL     1      10.168  13.142  -5.885  0.00  0.00    +0.000 C 
ATOM      6  C   UNL     1       8.989  12.206  -5.823  0.00  0.00    +0.000 C 
ATOM      7  H   UNL     1       9.630  15.074  -5.461  0.00  0.00    +0.000 HD
ATOM      8  H   UNL     1       7.496  12.115  -4.438  0.00  0.00    +0.000 HD
ATOM      9  H   UNL     1       7.394  13.514  -5.534  0.00  0.00    +0.000 HD
ATOM     10  H   UNL     1       9.319  11.248  -5.410  0.00  0.00    +0.000 HD
ATOM     11  H   UNL     1       8.549  12.066  -6.812  0.00  0.00    +0.000 HD
ENDROOT
BRANCH   2  12
ATOM     12  C   UNL     1      11.365  14.628  -4.234  0.00  0.00    +0.000 C 
ATOM     13  C   UNL     1      11.653  16.046  -3.834  0.00  0.00    +0.000 C 
ATOM     14  C   UNL     1      12.354  15.443  -5.015  0.00  0.00    +0.000 C 
ATOM     15  H   UNL     1      11.808  13.823  -3.662  0.00  0.00    +0.000 HD
ATOM     16  H   UNL     1      13.399  15.172  -4.919  0.00  0.00    +0.000 HD
BRANCH  13  17
ATOM     17  C   UNL     1      10.579  17.055  -4.065  0.00  0.00    +0.000 C 
ATOM     18  H   UNL     1      10.394  17.129  -5.144  0.00  0.00    +0.000 HD
ATOM     19  H   UNL     1       9.600  16.882  -3.622  0.00  0.00    +0.000 HD
ATOM     20  H   UNL     1      10.924  18.042  -3.751  0.00  0.00    +0.000 HD
ENDBRANCH  13  17
BRANCH  13  21
ATOM     21  C   UNL     1      12.464  16.301  -2.609  0.00  0.00    +0.000 C 
ATOM     22  H   UNL     1      12.150  17.232  -2.125  0.00  0.00    +0.000 HD
ATOM     23  H   UNL     1      12.344  15.483  -1.890  0.00  0.00    +0.000 HD
ATOM     24  H   UNL     1      13.534  16.387  -2.831  0.00  0.00    +0.000 HD
ENDBRANCH  13  21
BRANCH  14  25
ATOM     25  C   UNL     1      12.003  15.862  -6.396  0.00  0.00    +0.000 C 
ATOM     26  H   UNL     1      11.492  16.820  -6.505  0.00  0.00    +0.000 HD
ATOM     27  H   UNL     1      11.379  15.085  -6.838  0.00  0.00    +0.000 HD
BRANCH  25  28
ATOM     28  C   UNL     1      13.208  15.810  -7.340  0.00  0.00    +0.000 C 
ATOM     29  H   UNL     1      13.664  16.803  -7.411  0.00  0.00    +0.000 HD
ATOM     30  H   UNL     1      13.964  15.118  -6.950  0.00  0.00    +0.000 HD
BRANCH  28  32
ATOM     31  O   UNL     1      13.679  15.004  -9.571  0.00  0.00    +0.000 OA
ATOM     32  C   UNL     1      12.842  15.366  -8.745  0.00  0.00    +0.000 C 
BRANCH  32  33
ATOM     33  C   UNL     1      11.375  15.393  -9.087  0.00  0.00    +0.000 C 
ATOM     34  H   UNL     1      10.999  16.416  -9.006  0.00  0.00    +0.000 HD
ATOM     35  H   UNL     1      10.828  14.734  -8.408  0.00  0.00    +0.000 HD
ATOM     36  H   UNL     1      11.228  15.043 -10.113  0.00  0.00    +0.000 HD
ENDBRANCH  32  33
ENDBRANCH  28  32
ENDBRANCH  25  28
ENDBRANCH  14  25
ENDBRANCH   2  12
BRANCH   3  37
ATOM     37  C   UNL     1       9.497  12.804  -2.810  0.00  0.00    +0.000 C 
ATOM     38  H   UNL     1       9.117  13.067  -1.815  0.00  0.00    +0.000 HD
ATOM     39  H   UNL     1       9.335  11.738  -2.988  0.00  0.00    +0.000 HD
ATOM     40  H   UNL     1      10.589  12.894  -2.740  0.00  0.00    +0.000 HD
ENDBRANCH   3  37
BRANCH   3  41
ATOM     41  C   UNL     1       8.184  14.883  -3.263  0.00  0.00    +0.000 C 
ATOM     42  H   UNL     1       8.844  15.751  -3.259  0.00  0.00    +0.000 HD
BRANCH  41  43
ATOM     43  C   UNL     1       7.841  14.537  -1.824  0.00  0.00    +0.000 A 
ATOM     44  C   UNL     1       8.564  15.110  -0.777  0.00  0.00    +0.000 A 
ATOM     45  C   UNL     1       6.803  13.646  -1.549  0.00  0.00    +0.000 A 
ATOM     46  C   UNL     1       8.249  14.793   0.544  0.00  0.00    +0.000 A 
ATOM     47  C   UNL     1       6.488  13.328  -0.228  0.00  0.00    +0.000 A 
ATOM     48  C   UNL     1       7.211  13.902   0.818  0.00  0.00    +0.000 A 
BRANCH  46  50
ATOM     49  O   UNL     1      10.235  15.445   1.650  0.00  0.00    +0.000 OA
ATOM     50  C   UNL     1       9.004  15.392   1.638  0.00  0.00    +0.000 C 
ATOM     51  H   UNL     1       8.433  15.820   2.476  0.00  0.00    +0.000 HD
ENDBRANCH  46  50
BRANCH  47  53
ATOM     52  O   UNL     1       5.583  11.308   0.607  0.00  0.00    +0.000 OA
ATOM     53  C   UNL     1       5.403  12.397   0.059  0.00  0.00    +0.000 C 
ATOM     54  H   UNL     1       4.384  12.695  -0.234  0.00  0.00    +0.000 HD
ENDBRANCH  47  53
BRANCH  48  55
ATOM     55  O   UNL     1       6.903  13.591   2.111  0.00  0.00    +0.000 OA
ATOM     56  H   UNL     1       6.361  12.786   2.142  0.00  0.00    +0.000 HD
ENDBRANCH  48  55
BRANCH  45  57
ATOM     57  O   UNL     1       6.098  13.087  -2.575  0.00  0.00    +0.000 OA
ATOM     58  H   UNL     1       5.546  13.746  -3.021  0.00  0.00    +0.000 HD
ENDBRANCH  45  57
BRANCH  44  59
ATOM     59  O   UNL     1       9.577  15.981  -1.051  0.00  0.00    +0.000 OA
ATOM     60  H   UNL     1       9.624  16.174  -2.002  0.00  0.00    +0.000 HD
ENDBRANCH  44  59
ENDBRANCH  41  43
BRANCH  41  61
ATOM     61  C   UNL     1       6.944  15.240  -4.117  0.00  0.00    +0.000 C 
ATOM     62  H   UNL     1       6.750  14.450  -4.852  0.00  0.00    +0.000 HD
ATOM     63  H   UNL     1       6.039  15.353  -3.515  0.00  0.00    +0.000 HD
BRANCH  61  64
ATOM     64  C   UNL     1       7.038  16.568  -4.899  0.00  0.00    +0.000 C 
ATOM     65  H   UNL     1       7.760  17.229  -4.406  0.00  0.00    +0.000 HD
BRANCH  64  66
ATOM     66  C   UNL     1       7.489  16.362  -6.346  0.00  0.00    +0.000 C 
ATOM     67  H   UNL     1       6.673  16.522  -7.054  0.00  0.00    +0.000 HD
ATOM     68  H   UNL     1       7.839  15.335  -6.496  0.00  0.00    +0.000 HD
ATOM     69  H   UNL     1       8.316  17.033  -6.602  0.00  0.00    +0.000 HD
ENDBRANCH  64  66
BRANCH  64  70
ATOM     70  C   UNL     1       5.678  17.272  -4.881  0.00  0.00    +0.000 C 
ATOM     71  H   UNL     1       4.876  16.583  -4.593  0.00  0.00    +0.000 HD
ATOM     72  H   UNL     1       5.437  17.678  -5.869  0.00  0.00    +0.000 HD
ATOM     73  H   UNL     1       5.679  18.107  -4.172  0.00  0.00    +0.000 HD
ENDBRANCH  64  70
ENDBRANCH  61  64
ENDBRANCH  41  61
ENDBRANCH   3  41
TORSDOF 19
ENDMDL
MODEL 8
REMARK VINA RESULT:    -5.114     24.129     27.402
REMARK INTER + INTRA:         -11.025
REMARK INTER:                  -9.517
REMARK INTRA:                  -1.508
REMARK UNBOUND:                -1.575
REMARK  Name = 10390702
REMARK  19 active torsions:
REMARK  status: ('A' for Active; 'I' for Inactive)
REMARK    1  A    between atoms: O_3  and  C_26
REMARK    2  A    between atoms: O_4  and  C_27
REMARK    3  A    between atoms: O_5  and  C_33
REMARK    4  A    between atoms: C_8  and  C_11
REMARK    5  A    between atoms: C_9  and  C_14
REMARK    6  A    between atoms: C_9  and  C_15
REMARK    7  A    between atoms: C_10  and  C_13
REMARK    8  A    between atoms: C_12  and  C_18
REMARK    9  A    between atoms: C_12  and  C_20
REMARK   10  A    between atoms: C_13  and  C_21
REMARK   11  A    between atoms: C_18  and  C_22
REMARK   12  A    between atoms: C_18  and  C_23
REMARK   13  A    between atoms: C_21  and  C_25
REMARK   14  A    between atoms: C_22  and  C_24
REMARK   15  A    between atoms: C_24  and  C_28
REMARK   16  A    between atoms: C_24  and  C_29
REMARK   17  A    between atoms: C_25  and  C_30
REMARK   18  A    between atoms: C_31  and  C_35
REMARK   19  A    between atoms: C_32  and  C_34
REMARK                            x       y       z     vdW  Elec       q    Type
REMARK                         _______ _______ _______ _____ _____    ______ ____
ROOT
ATOM      1  O   UNL     1       7.022  12.051  -0.405  0.00  0.00    +0.000 OA
ATOM      2  C   UNL     1       7.534  13.826  -1.983  0.00  0.00    +0.000 C 
ATOM      3  C   UNL     1       8.166  13.627  -3.386  0.00  0.00    +0.000 C 
ATOM      4  C   UNL     1       9.247  12.560  -3.110  0.00  0.00    +0.000 C 
ATOM      5  C   UNL     1       7.641  12.434  -1.390  0.00  0.00    +0.000 C 
ATOM      6  C   UNL     1       8.602  11.562  -2.155  0.00  0.00    +0.000 C 
ATOM      7  H   UNL     1       8.237  14.395  -1.377  0.00  0.00    +0.000 HD
ATOM      8  H   UNL     1       9.510  11.918  -3.946  0.00  0.00    +0.000 HD
ATOM      9  H   UNL     1      10.152  12.882  -2.595  0.00  0.00    +0.000 HD
ATOM     10  H   UNL     1       8.035  10.792  -2.688  0.00  0.00    +0.000 HD
ATOM     11  H   UNL     1       9.333  11.104  -1.486  0.00  0.00    +0.000 HD
ENDROOT
BRANCH   2  12
ATOM     12  C   UNL     1       6.146  14.384  -1.963  0.00  0.00    +0.000 C 
ATOM     13  C   UNL     1       5.916  15.853  -1.759  0.00  0.00    +0.000 C 
ATOM     14  C   UNL     1       5.583  14.882  -0.664  0.00  0.00    +0.000 C 
ATOM     15  H   UNL     1       5.443  13.823  -2.565  0.00  0.00    +0.000 HD
ATOM     16  H   UNL     1       4.541  14.660  -0.463  0.00  0.00    +0.000 HD
BRANCH  13  17
ATOM     17  C   UNL     1       7.119  16.722  -1.616  0.00  0.00    +0.000 C 
ATOM     18  H   UNL     1       7.369  16.802  -0.550  0.00  0.00    +0.000 HD
ATOM     19  H   UNL     1       8.044  16.412  -2.100  0.00  0.00    +0.000 HD
ATOM     20  H   UNL     1       6.886  17.736  -1.946  0.00  0.00    +0.000 HD
ENDBRANCH  13  17
BRANCH  13  21
ATOM     21  C   UNL     1       4.779  16.511  -2.464  0.00  0.00    +0.000 C 
ATOM     22  H   UNL     1       5.090  16.864  -3.453  0.00  0.00    +0.000 HD
ATOM     23  H   UNL     1       3.949  15.809  -2.596  0.00  0.00    +0.000 HD
ATOM     24  H   UNL     1       4.393  17.375  -1.910  0.00  0.00    +0.000 HD
ENDBRANCH  13  21
BRANCH  14  25
ATOM     25  C   UNL     1       6.424  14.804   0.557  0.00  0.00    +0.000 C 
ATOM     26  H   UNL     1       7.208  15.555   0.664  0.00  0.00    +0.000 HD
ATOM     27  H   UNL     1       6.885  13.816   0.588  0.00  0.00    +0.000 HD
BRANCH  25  28
ATOM     28  C   UNL     1       5.583  14.749   1.836  0.00  0.00    +0.000 C 
ATOM     29  H   UNL     1       6.202  15.028   2.696  0.00  0.00    +0.000 HD
ATOM     30  H   UNL     1       4.752  15.461   1.772  0.00  0.00    +0.000 HD
BRANCH  28  32
ATOM     31  O   UNL     1       3.891  13.024   1.720  0.00  0.00    +0.000 OA
ATOM     32  C   UNL     1       5.006  13.371   2.108  0.00  0.00    +0.000 C 
BRANCH  32  33
ATOM     33  C   UNL     1       5.882  12.430   2.895  0.00  0.00    +0.000 C 
ATOM     34  H   UNL     1       6.713  12.985   3.336  0.00  0.00    +0.000 HD
ATOM     35  H   UNL     1       6.260  11.644   2.235  0.00  0.00    +0.000 HD
ATOM     36  H   UNL     1       5.300  11.968   3.697  0.00  0.00    +0.000 HD
ENDBRANCH  32  33
ENDBRANCH  28  32
ENDBRANCH  25  28
ENDBRANCH  14  25
ENDBRANCH   2  12
BRANCH   3  37
ATOM     37  C   UNL     1       7.175  13.112  -4.447  0.00  0.00    +0.000 C 
ATOM     38  H   UNL     1       7.675  12.736  -5.347  0.00  0.00    +0.000 HD
ATOM     39  H   UNL     1       6.466  12.361  -4.088  0.00  0.00    +0.000 HD
ATOM     40  H   UNL     1       6.532  13.934  -4.790  0.00  0.00    +0.000 HD
ENDBRANCH   3  37
BRANCH   3  41
ATOM     41  C   UNL     1       8.810  14.921  -3.898  0.00  0.00    +0.000 C 
ATOM     42  H   UNL     1       8.287  15.748  -3.415  0.00  0.00    +0.000 HD
BRANCH  41  43
ATOM     43  C   UNL     1       8.621  15.046  -5.399  0.00  0.00    +0.000 A 
ATOM     44  C   UNL     1       7.576  15.819  -5.909  0.00  0.00    +0.000 A 
ATOM     45  C   UNL     1       9.490  14.389  -6.271  0.00  0.00    +0.000 A 
ATOM     46  C   UNL     1       7.402  15.935  -7.287  0.00  0.00    +0.000 A 
ATOM     47  C   UNL     1       9.316  14.504  -7.649  0.00  0.00    +0.000 A 
ATOM     48  C   UNL     1       8.272  15.278  -8.158  0.00  0.00    +0.000 A 
BRANCH  46  50
ATOM     49  O   UNL     1       5.551  16.342  -8.703  0.00  0.00    +0.000 OA
ATOM     50  C   UNL     1       6.311  16.743  -7.820  0.00  0.00    +0.000 C 
ATOM     51  H   UNL     1       6.168  17.749  -7.394  0.00  0.00    +0.000 HD
ENDBRANCH  46  50
BRANCH  47  53
ATOM     52  O   UNL     1      10.856  14.400  -9.442  0.00  0.00    +0.000 OA
ATOM     53  C   UNL     1      10.225  13.817  -8.559  0.00  0.00    +0.000 C 
ATOM     54  H   UNL     1      10.339  12.727  -8.439  0.00  0.00    +0.000 HD
ENDBRANCH  47  53
BRANCH  48  55
ATOM     55  O   UNL     1       8.102  15.390  -9.507  0.00  0.00    +0.000 OA
ATOM     56  H   UNL     1       8.704  14.789  -9.973  0.00  0.00    +0.000 HD
ENDBRANCH  48  55
BRANCH  45  57
ATOM     57  O   UNL     1      10.510  13.634  -5.769  0.00  0.00    +0.000 OA
ATOM     58  H   UNL     1      10.649  13.813  -4.827  0.00  0.00    +0.000 HD
ENDBRANCH  45  57
BRANCH  44  59
ATOM     59  O   UNL     1       6.729  16.461  -5.054  0.00  0.00    +0.000 OA
ATOM     60  H   UNL     1       5.920  15.943  -4.911  0.00  0.00    +0.000 HD
ENDBRANCH  44  59
ENDBRANCH  41  43
BRANCH  41  61
ATOM     61  C   UNL     1      10.293  14.987  -3.462  0.00  0.00    +0.000 C 
ATOM     62  H   UNL     1      10.607  14.024  -3.040  0.00  0.00    +0.000 HD
ATOM     63  H   UNL     1      10.964  15.210  -4.295  0.00  0.00    +0.000 HD
BRANCH  61  64
ATOM     64  C   UNL     1      10.629  16.068  -2.412  0.00  0.00    +0.000 C 
ATOM     65  H   UNL     1       9.945  16.916  -2.534  0.00  0.00    +0.000 HD
BRANCH  64  66
ATOM     66  C   UNL     1      10.500  15.551  -0.979  0.00  0.00    +0.000 C 
ATOM     67  H   UNL     1      11.447  15.160  -0.600  0.00  0.00    +0.000 HD
ATOM     68  H   UNL     1       9.778  14.727  -0.933  0.00  0.00    +0.000 HD
ATOM     69  H   UNL     1      10.146  16.337  -0.305  0.00  0.00    +0.000 HD
ENDBRANCH  64  66
BRANCH  64  70
ATOM     70  C   UNL     1      12.052  16.585  -2.645  0.00  0.00    +0.000 C 
ATOM     71  H   UNL     1      12.798  15.812  -2.428  0.00  0.00    +0.000 HD
ATOM     72  H   UNL     1      12.262  17.447  -2.003  0.00  0.00    +0.000 HD
ATOM     73  H   UNL     1      12.188  16.904  -3.684  0.00  0.00    +0.000 HD
ENDBRANCH  64  70
ENDBRANCH  61  64
ENDBRANCH  41  61
ENDBRANCH   3  41
TORSDOF 19
ENDMDL
MODEL 9
REMARK VINA RESULT:    -5.100     24.126     27.391
REMARK INTER + INTRA:         -10.997
REMARK INTER:                  -9.481
REMARK INTRA:                  -1.517
REMARK UNBOUND:                -1.575
REMARK  Name = 10390702
REMARK  19 active torsions:
REMARK  status: ('A' for Active; 'I' for Inactive)
REMARK    1  A    between atoms: O_3  and  C_26
REMARK    2  A    between atoms: O_4  and  C_27
REMARK    3  A    between atoms: O_5  and  C_33
REMARK    4  A    between atoms: C_8  and  C_11
REMARK    5  A    between atoms: C_9  and  C_14
REMARK    6  A    between atoms: C_9  and  C_15
REMARK    7  A    between atoms: C_10  and  C_13
REMARK    8  A    between atoms: C_12  and  C_18
REMARK    9  A    between atoms: C_12  and  C_20
REMARK   10  A    between atoms: C_13  and  C_21
REMARK   11  A    between atoms: C_18  and  C_22
REMARK   12  A    between atoms: C_18  and  C_23
REMARK   13  A    between atoms: C_21  and  C_25
REMARK   14  A    between atoms: C_22  and  C_24
REMARK   15  A    between atoms: C_24  and  C_28
REMARK   16  A    between atoms: C_24  and  C_29
REMARK   17  A    between atoms: C_25  and  C_30
REMARK   18  A    between atoms: C_31  and  C_35
REMARK   19  A    between atoms: C_32  and  C_34
REMARK                            x       y       z     vdW  Elec       q    Type
REMARK                         _______ _______ _______ _____ _____    ______ ____
ROOT
ATOM      1  O   UNL     1       6.961  12.020  -0.432  0.00  0.00    +0.000 OA
ATOM      2  C   UNL     1       7.498  13.818  -1.975  0.00  0.00    +0.000 C 
ATOM      3  C   UNL     1       8.154  13.640  -3.370  0.00  0.00    +0.000 C 
ATOM      4  C   UNL     1       9.231  12.569  -3.092  0.00  0.00    +0.000 C 
ATOM      5  C   UNL     1       7.597  12.418  -1.401  0.00  0.00    +0.000 C 
ATOM      6  C   UNL     1       8.571  11.557  -2.162  0.00  0.00    +0.000 C 
ATOM      7  H   UNL     1       8.191  14.378  -1.349  0.00  0.00    +0.000 HD
ATOM      8  H   UNL     1       9.508  11.940  -3.932  0.00  0.00    +0.000 HD
ATOM      9  H   UNL     1      10.127  12.884  -2.557  0.00  0.00    +0.000 HD
ATOM     10  H   UNL     1       8.013  10.795  -2.716  0.00  0.00    +0.000 HD
ATOM     11  H   UNL     1       9.291  11.090  -1.488  0.00  0.00    +0.000 HD
ENDROOT
BRANCH   2  12
ATOM     12  C   UNL     1       6.110  14.375  -1.970  0.00  0.00    +0.000 C 
ATOM     13  C   UNL     1       5.876  15.842  -1.751  0.00  0.00    +0.000 C 
ATOM     14  C   UNL     1       5.526  14.857  -0.674  0.00  0.00    +0.000 C 
ATOM     15  H   UNL     1       5.417  13.822  -2.590  0.00  0.00    +0.000 HD
ATOM     16  H   UNL     1       4.481  14.632  -0.492  0.00  0.00    +0.000 HD
BRANCH  13  17
ATOM     17  C   UNL     1       7.076  16.709  -1.578  0.00  0.00    +0.000 C 
ATOM     18  H   UNL     1       7.310  16.776  -0.507  0.00  0.00    +0.000 HD
ATOM     19  H   UNL     1       8.009  16.406  -2.051  0.00  0.00    +0.000 HD
ATOM     20  H   UNL     1       6.847  17.727  -1.899  0.00  0.00    +0.000 HD
ENDBRANCH  13  17
BRANCH  13  21
ATOM     21  C   UNL     1       4.750  16.508  -2.465  0.00  0.00    +0.000 C 
ATOM     22  H   UNL     1       5.077  16.874  -3.445  0.00  0.00    +0.000 HD
ATOM     23  H   UNL     1       3.922  15.807  -2.620  0.00  0.00    +0.000 HD
ATOM     24  H   UNL     1       4.355  17.365  -1.907  0.00  0.00    +0.000 HD
ENDBRANCH  13  21
BRANCH  14  25
ATOM     25  C   UNL     1       6.348  14.763   0.559  0.00  0.00    +0.000 C 
ATOM     26  H   UNL     1       7.121  15.521   0.694  0.00  0.00    +0.000 HD
ATOM     27  H   UNL     1       6.820  13.781   0.578  0.00  0.00    +0.000 HD
BRANCH  25  28
ATOM     28  C   UNL     1       5.486  14.673   1.822  0.00  0.00    +0.000 C 
ATOM     29  H   UNL     1       6.082  14.960   2.696  0.00  0.00    +0.000 HD
ATOM     30  H   UNL     1       4.637  15.362   1.751  0.00  0.00    +0.000 HD
BRANCH  28  32
ATOM     31  O   UNL     1       3.844  12.905   1.664  0.00  0.00    +0.000 OA
ATOM     32  C   UNL     1       4.943  13.277   2.072  0.00  0.00    +0.000 C 
BRANCH  32  33
ATOM     33  C   UNL     1       5.833  12.351   2.860  0.00  0.00    +0.000 C 
ATOM     34  H   UNL     1       6.643  12.924   3.319  0.00  0.00    +0.000 HD
ATOM     35  H   UNL     1       6.241  11.583   2.198  0.00  0.00    +0.000 HD
ATOM     36  H   UNL     1       5.253  11.864   3.649  0.00  0.00    +0.000 HD
ENDBRANCH  32  33
ENDBRANCH  28  32
ENDBRANCH  25  28
ENDBRANCH  14  25
ENDBRANCH   2  12
BRANCH   3  37
ATOM     37  C   UNL     1       7.181  13.140  -4.455  0.00  0.00    +0.000 C 
ATOM     38  H   UNL     1       7.696  12.778  -5.352  0.00  0.00    +0.000 HD
ATOM     39  H   UNL     1       6.467  12.384  -4.118  0.00  0.00    +0.000 HD
ATOM     40  H   UNL     1       6.543  13.967  -4.796  0.00  0.00    +0.000 HD
ENDBRANCH   3  37
BRANCH   3  41
ATOM     41  C   UNL     1       8.806  14.942  -3.852  0.00  0.00    +0.000 C 
ATOM     42  H   UNL     1       8.270  15.762  -3.371  0.00  0.00    +0.000 HD
BRANCH  41  43
ATOM     43  C   UNL     1       8.648  15.085  -5.356  0.00  0.00    +0.000 A 
ATOM     44  C   UNL     1       9.530  14.429  -6.215  0.00  0.00    +0.000 A 
ATOM     45  C   UNL     1       7.622  15.873  -5.879  0.00  0.00    +0.000 A 
ATOM     46  C   UNL     1       9.385  14.560  -7.596  0.00  0.00    +0.000 A 
ATOM     47  C   UNL     1       7.478  16.004  -7.259  0.00  0.00    +0.000 A 
ATOM     48  C   UNL     1       8.359  15.347  -8.118  0.00  0.00    +0.000 A 
BRANCH  46  50
ATOM     49  O   UNL     1      10.844  14.430  -9.454  0.00  0.00    +0.000 OA
ATOM     50  C   UNL     1      10.307  13.874  -8.495  0.00  0.00    +0.000 C 
ATOM     51  H   UNL     1      10.530  12.816  -8.285  0.00  0.00    +0.000 HD
ENDBRANCH  46  50
BRANCH  47  53
ATOM     52  O   UNL     1       5.589  16.406  -8.627  0.00  0.00    +0.000 OA
ATOM     53  C   UNL     1       6.404  16.828  -7.805  0.00  0.00    +0.000 C 
ATOM     54  H   UNL     1       6.335  17.871  -7.457  0.00  0.00    +0.000 HD
ENDBRANCH  47  53
BRANCH  48  55
ATOM     55  O   UNL     1       8.217  15.476  -9.470  0.00  0.00    +0.000 OA
ATOM     56  H   UNL     1       7.541  16.142  -9.674  0.00  0.00    +0.000 HD
ENDBRANCH  48  55
BRANCH  45  57
ATOM     57  O   UNL     1       6.762  16.513  -5.035  0.00  0.00    +0.000 OA
ATOM     58  H   UNL     1       6.834  16.169  -4.132  0.00  0.00    +0.000 HD
ENDBRANCH  45  57
BRANCH  44  59
ATOM     59  O   UNL     1      10.532  13.660  -5.700  0.00  0.00    +0.000 OA
ATOM     60  H   UNL     1      11.365  14.156  -5.657  0.00  0.00    +0.000 HD
ENDBRANCH  44  59
ENDBRANCH  41  43
BRANCH  41  61
ATOM     61  C   UNL     1      10.279  15.005  -3.384  0.00  0.00    +0.000 C 
ATOM     62  H   UNL     1      10.585  14.039  -2.965  0.00  0.00    +0.000 HD
ATOM     63  H   UNL     1      10.967  15.239  -4.199  0.00  0.00    +0.000 HD
BRANCH  61  64
ATOM     64  C   UNL     1      10.590  16.076  -2.315  0.00  0.00    +0.000 C 
ATOM     65  H   UNL     1       9.888  16.910  -2.424  0.00  0.00    +0.000 HD
BRANCH  64  66
ATOM     66  C   UNL     1      10.471  15.532  -0.891  0.00  0.00    +0.000 C 
ATOM     67  H   UNL     1      11.426  15.156  -0.518  0.00  0.00    +0.000 HD
ATOM     68  H   UNL     1       9.768  14.691  -0.860  0.00  0.00    +0.000 HD
ATOM     69  H   UNL     1      10.099  16.298  -0.204  0.00  0.00    +0.000 HD
ENDBRANCH  64  66
BRANCH  64  70
ATOM     70  C   UNL     1      12.001  16.628  -2.537  0.00  0.00    +0.000 C 
ATOM     71  H   UNL     1      12.764  15.868  -2.332  0.00  0.00    +0.000 HD
ATOM     72  H   UNL     1      12.192  17.484  -1.881  0.00  0.00    +0.000 HD
ATOM     73  H   UNL     1      12.131  16.967  -3.571  0.00  0.00    +0.000 HD
ENDBRANCH  64  70
ENDBRANCH  61  64
ENDBRANCH  41  61
ENDBRANCH   3  41
TORSDOF 19
ENDMDL
MODEL 10
REMARK VINA RESULT:    -5.090     24.419     26.935
REMARK INTER + INTRA:         -10.979
REMARK INTER:                  -9.391
REMARK INTRA:                  -1.588
REMARK UNBOUND:                -1.575
REMARK  Name = 10390702
REMARK  19 active torsions:
REMARK  status: ('A' for Active; 'I' for Inactive)
REMARK    1  A    between atoms: O_3  and  C_26
REMARK    2  A    between atoms: O_4  and  C_27
REMARK    3  A    between atoms: O_5  and  C_33
REMARK    4  A    between atoms: C_8  and  C_11
REMARK    5  A    between atoms: C_9  and  C_14
REMARK    6  A    between atoms: C_9  and  C_15
REMARK    7  A    between atoms: C_10  and  C_13
REMARK    8  A    between atoms: C_12  and  C_18
REMARK    9  A    between atoms: C_12  and  C_20
REMARK   10  A    between atoms: C_13  and  C_21
REMARK   11  A    between atoms: C_18  and  C_22
REMARK   12  A    between atoms: C_18  and  C_23
REMARK   13  A    between atoms: C_21  and  C_25
REMARK   14  A    between atoms: C_22  and  C_24
REMARK   15  A    between atoms: C_24  and  C_28
REMARK   16  A    between atoms: C_24  and  C_29
REMARK   17  A    between atoms: C_25  and  C_30
REMARK   18  A    between atoms: C_31  and  C_35
REMARK   19  A    between atoms: C_32  and  C_34
REMARK                            x       y       z     vdW  Elec       q    Type
REMARK                         _______ _______ _______ _____ _____    ______ ____
ROOT
ATOM      1  O   UNL     1      11.128  13.110  -6.829  0.00  0.00    +0.000 OA
ATOM      2  C   UNL     1      10.110  14.375  -5.022  0.00  0.00    +0.000 C 
ATOM      3  C   UNL     1       9.015  13.845  -4.059  0.00  0.00    +0.000 C 
ATOM      4  C   UNL     1       8.090  13.060  -5.014  0.00  0.00    +0.000 C 
ATOM      5  C   UNL     1      10.203  13.253  -6.039  0.00  0.00    +0.000 C 
ATOM      6  C   UNL     1       9.020  12.323  -5.970  0.00  0.00    +0.000 C 
ATOM      7  H   UNL     1       9.677  15.186  -5.605  0.00  0.00    +0.000 HD
ATOM      8  H   UNL     1       7.537  12.235  -4.574  0.00  0.00    +0.000 HD
ATOM      9  H   UNL     1       7.433  13.637  -5.665  0.00  0.00    +0.000 HD
ATOM     10  H   UNL     1       9.349  11.361  -5.563  0.00  0.00    +0.000 HD
ATOM     11  H   UNL     1       8.571  12.187  -6.956  0.00  0.00    +0.000 HD
ENDROOT
BRANCH   2  12
ATOM     12  C   UNL     1      11.420  14.729  -4.393  0.00  0.00    +0.000 C 
ATOM     13  C   UNL     1      11.714  16.142  -3.981  0.00  0.00    +0.000 C 
ATOM     14  C   UNL     1      12.402  15.550  -5.176  0.00  0.00    +0.000 C 
ATOM     15  H   UNL     1      11.868  13.917  -3.834  0.00  0.00    +0.000 HD
ATOM     16  H   UNL     1      13.448  15.277  -5.093  0.00  0.00    +0.000 HD
BRANCH  13  17
ATOM     17  C   UNL     1      10.639  17.154  -4.191  0.00  0.00    +0.000 C 
ATOM     18  H   UNL     1      10.959  17.847  -4.979  0.00  0.00    +0.000 HD
ATOM     19  H   UNL     1       9.654  16.809  -4.501  0.00  0.00    +0.000 HD
ATOM     20  H   UNL     1      10.519  17.759  -3.290  0.00  0.00    +0.000 HD
ENDBRANCH  13  17
BRANCH  13  21
ATOM     21  C   UNL     1      12.537  16.382  -2.762  0.00  0.00    +0.000 C 
ATOM     22  H   UNL     1      12.302  17.358  -2.323  0.00  0.00    +0.000 HD
ATOM     23  H   UNL     1      12.344  15.612  -2.007  0.00  0.00    +0.000 HD
ATOM     24  H   UNL     1      13.612  16.367  -2.978  0.00  0.00    +0.000 HD
ENDBRANCH  13  21
BRANCH  14  25
ATOM     25  C   UNL     1      12.039  15.984  -6.548  0.00  0.00    +0.000 C 
ATOM     26  H   UNL     1      11.527  16.944  -6.642  0.00  0.00    +0.000 HD
ATOM     27  H   UNL     1      11.409  15.213  -6.992  0.00  0.00    +0.000 HD
BRANCH  25  28
ATOM     28  C   UNL     1      13.234  15.940  -7.505  0.00  0.00    +0.000 C 
ATOM     29  H   UNL     1      13.639  16.950  -7.635  0.00  0.00    +0.000 HD
ATOM     30  H   UNL     1      14.027  15.308  -7.089  0.00  0.00    +0.000 HD
BRANCH  28  32
ATOM     31  O   UNL     1      13.704  14.914  -9.643  0.00  0.00    +0.000 OA
ATOM     32  C   UNL     1      12.874  15.405  -8.880  0.00  0.00    +0.000 C 
BRANCH  32  33
ATOM     33  C   UNL     1      11.423  15.508  -9.272  0.00  0.00    +0.000 C 
ATOM     34  H   UNL     1      11.271  16.400  -9.883  0.00  0.00    +0.000 HD
ATOM     35  H   UNL     1      10.803  15.556  -8.372  0.00  0.00    +0.000 HD
ATOM     36  H   UNL     1      11.134  14.627  -9.853  0.00  0.00    +0.000 HD
ENDBRANCH  32  33
ENDBRANCH  28  32
ENDBRANCH  25  28
ENDBRANCH  14  25
ENDBRANCH   2  12
BRANCH   3  37
ATOM     37  C   UNL     1       9.554  12.909  -2.959  0.00  0.00    +0.000 C 
ATOM     38  H   UNL     1      10.620  12.683  -3.080  0.00  0.00    +0.000 HD
ATOM     39  H   UNL     1       9.371  13.250  -1.936  0.00  0.00    +0.000 HD
ATOM     40  H   UNL     1       9.041  11.940  -3.007  0.00  0.00    +0.000 HD
ENDBRANCH   3  37
BRANCH   3  41
ATOM     41  C   UNL     1       8.248  14.996  -3.396  0.00  0.00    +0.000 C 
ATOM     42  H   UNL     1       8.915  15.858  -3.388  0.00  0.00    +0.000 HD
BRANCH  41  43
ATOM     43  C   UNL     1       7.906  14.643  -1.959  0.00  0.00    +0.000 A 
ATOM     44  C   UNL     1       6.859  13.760  -1.687  0.00  0.00    +0.000 A 
ATOM     45  C   UNL     1       8.637  15.201  -0.910  0.00  0.00    +0.000 A 
ATOM     46  C   UNL     1       6.545  13.435  -0.368  0.00  0.00    +0.000 A 
ATOM     47  C   UNL     1       8.322  14.877   0.409  0.00  0.00    +0.000 A 
ATOM     48  C   UNL     1       7.277  13.994   0.680  0.00  0.00    +0.000 A 
BRANCH  46  50
ATOM     49  O   UNL     1       5.613  11.450   0.518  0.00  0.00    +0.000 OA
ATOM     50  C   UNL     1       5.452  12.513  -0.084  0.00  0.00    +0.000 C 
ATOM     51  H   UNL     1       4.443  12.800  -0.420  0.00  0.00    +0.000 HD
ENDBRANCH  46  50
BRANCH  47  53
ATOM     52  O   UNL     1      10.319  15.451   1.542  0.00  0.00    +0.000 OA
ATOM     53  C   UNL     1       9.087  15.461   1.506  0.00  0.00    +0.000 C 
ATOM     54  H   UNL     1       8.523  15.926   2.330  0.00  0.00    +0.000 HD
ENDBRANCH  47  53
BRANCH  48  55
ATOM     55  O   UNL     1       6.969  13.677   1.972  0.00  0.00    +0.000 OA
ATOM     56  H   UNL     1       7.090  12.725   2.121  0.00  0.00    +0.000 HD
ENDBRANCH  48  55
BRANCH  45  57
ATOM     57  O   UNL     1       9.658  16.064  -1.179  0.00  0.00    +0.000 OA
ATOM     58  H   UNL     1       9.942  16.532  -0.380  0.00  0.00    +0.000 HD
ENDBRANCH  45  57
BRANCH  44  59
ATOM     59  O   UNL     1       6.147  13.216  -2.716  0.00  0.00    +0.000 OA
ATOM     60  H   UNL     1       6.517  13.482  -3.574  0.00  0.00    +0.000 HD
ENDBRANCH  44  59
ENDBRANCH  41  43
BRANCH  41  61
ATOM     61  C   UNL     1       7.009  15.368  -4.245  0.00  0.00    +0.000 C 
ATOM     62  H   UNL     1       6.791  14.572  -4.967  0.00  0.00    +0.000 HD
ATOM     63  H   UNL     1       6.113  15.510  -3.636  0.00  0.00    +0.000 HD
BRANCH  61  64
ATOM     64  C   UNL     1       7.126  16.682  -5.048  0.00  0.00    +0.000 C 
ATOM     65  H   UNL     1       7.922  17.300  -4.618  0.00  0.00    +0.000 HD
BRANCH  64  66
ATOM     66  C   UNL     1       7.452  16.438  -6.522  0.00  0.00    +0.000 C 
ATOM     67  H   UNL     1       8.487  16.117  -6.662  0.00  0.00    +0.000 HD
ATOM     68  H   UNL     1       7.329  17.361  -7.099  0.00  0.00    +0.000 HD
ATOM     69  H   UNL     1       6.787  15.686  -6.956  0.00  0.00    +0.000 HD
ENDBRANCH  64  66
BRANCH  64  70
ATOM     70  C   UNL     1       5.818  17.470  -4.936  0.00  0.00    +0.000 C 
ATOM     71  H   UNL     1       5.551  17.939  -5.890  0.00  0.00    +0.000 HD
ATOM     72  H   UNL     1       5.903  18.261  -4.183  0.00  0.00    +0.000 HD
ATOM     73  H   UNL     1       4.991  16.816  -4.637  0.00  0.00    +0.000 HD
ENDBRANCH  64  70
ENDBRANCH  61  64
ENDBRANCH  41  61
ENDBRANCH   3  41
TORSDOF 19
ENDMDL
