MODEL 1
REMARK VINA RESULT:    -5.393      0.000      0.000
REMARK INTER + INTRA:          -6.869
REMARK INTER:                  -6.640
REMARK INTRA:                  -0.229
REMARK UNBOUND:                -0.215
REMARK  Name = 3314
REMARK  5 active torsions:
REMARK  status: ('A' for Active; 'I' for Inactive)
REMARK    1  A    between atoms: O_1  and  C_6
REMARK    2  A    between atoms: O_1  and  C_11
REMARK    3  A    between atoms: O_2  and  C_8
REMARK    4  A    between atoms: C_3  and  C_4
REMARK    5  A    between atoms: C_4  and  C_10
REMARK                            x       y       z     vdW  Elec       q    Type
REMARK                         _______ _______ _______ _____ _____    ______ ____
ROOT
ATOM      1  C   UNL     1      11.171 -10.300  -2.411  0.00  0.00    +0.000 A 
ATOM      2  C   UNL     1      10.173 -11.181  -1.992  0.00  0.00    +0.000 A 
ATOM      3  C   UNL     1       9.250 -10.780  -1.026  0.00  0.00    +0.000 A 
ATOM      4  C   UNL     1      11.247  -9.020  -1.862  0.00  0.00    +0.000 A 
ATOM      5  C   UNL     1       9.326  -9.500  -0.478  0.00  0.00    +0.000 A 
ATOM      6  C   UNL     1      10.324  -8.619  -0.896  0.00  0.00    +0.000 A 
ATOM      7  H   UNL     1      10.108 -12.180  -2.416  0.00  0.00    +0.000 HD
ATOM      8  H   UNL     1      12.019  -8.325  -2.181  0.00  0.00    +0.000 HD
ATOM      9  H   UNL     1      10.395  -7.619  -0.478  0.00  0.00    +0.000 HD
ENDROOT
BRANCH   1  10
ATOM     10  C   UNL     1      12.157 -10.730  -3.445  0.00  0.00    +0.000 C 
ATOM     11  H   UNL     1      12.246 -11.824  -3.441  0.00  0.00    +0.000 HD
ATOM     12  H   UNL     1      11.776 -10.479  -4.443  0.00  0.00    +0.000 HD
BRANCH  10  13
ATOM     13  C   UNL     1      13.528 -10.141  -3.233  0.00  0.00    +0.000 C 
ATOM     14  C   UNL     1      14.263  -9.581  -4.201  0.00  0.00    +0.000 C 
ATOM     15  H   UNL     1      13.944 -10.192  -2.230  0.00  0.00    +0.000 HD
ATOM     16  H   UNL     1      15.247  -9.183  -3.982  0.00  0.00    +0.000 HD
ATOM     17  H   UNL     1      13.899  -9.511  -5.219  0.00  0.00    +0.000 HD
ENDBRANCH  10  13
ENDBRANCH   1  10
BRANCH   5  18
ATOM     18  O   UNL     1       8.432  -9.097   0.468  0.00  0.00    +0.000 OA
ATOM     19  H   UNL     1       8.895  -8.560   1.134  0.00  0.00    +0.000 HD
ENDBRANCH   5  18
BRANCH   3  20
ATOM     20  O   UNL     1       8.280 -11.648  -0.625  0.00  0.00    +0.000 OA
BRANCH  20  21
ATOM     21  C   UNL     1       8.292 -12.949  -1.208  0.00  0.00    +0.000 C 
ATOM     22  H   UNL     1       7.596 -13.611  -0.684  0.00  0.00    +0.000 HD
ATOM     23  H   UNL     1       9.301 -13.372  -1.186  0.00  0.00    +0.000 HD
ATOM     24  H   UNL     1       7.974 -12.860  -2.251  0.00  0.00    +0.000 HD
ENDBRANCH  20  21
ENDBRANCH   3  20
TORSDOF 5
ENDMDL
MODEL 2
REMARK VINA RESULT:    -4.836     22.389     23.849
REMARK INTER + INTRA:          -6.181
REMARK INTER:                  -5.987
REMARK INTRA:                  -0.195
REMARK UNBOUND:                -0.215
REMARK  Name = 3314
REMARK  5 active torsions:
REMARK  status: ('A' for Active; 'I' for Inactive)
REMARK    1  A    between atoms: O_1  and  C_6
REMARK    2  A    between atoms: O_1  and  C_11
REMARK    3  A    between atoms: O_2  and  C_8
REMARK    4  A    between atoms: C_3  and  C_4
REMARK    5  A    between atoms: C_4  and  C_10
REMARK                            x       y       z     vdW  Elec       q    Type
REMARK                         _______ _______ _______ _____ _____    ______ ____
ROOT
ATOM      1  C   UNL     1       7.393  12.880  -1.422  0.00  0.00    +0.000 A 
ATOM      2  C   UNL     1       6.824  13.554  -2.504  0.00  0.00    +0.000 A 
ATOM      3  C   UNL     1       7.277  13.302  -3.799  0.00  0.00    +0.000 A 
ATOM      4  C   UNL     1       8.415  11.956  -1.636  0.00  0.00    +0.000 A 
ATOM      5  C   UNL     1       8.299  12.377  -4.012  0.00  0.00    +0.000 A 
ATOM      6  C   UNL     1       8.868  11.704  -2.931  0.00  0.00    +0.000 A 
ATOM      7  H   UNL     1       6.027  14.276  -2.344  0.00  0.00    +0.000 HD
ATOM      8  H   UNL     1       8.866  11.424  -0.802  0.00  0.00    +0.000 HD
ATOM      9  H   UNL     1       9.664  10.980  -3.083  0.00  0.00    +0.000 HD
ENDROOT
BRANCH   1  10
ATOM     10  C   UNL     1       6.907  13.150  -0.038  0.00  0.00    +0.000 C 
ATOM     11  H   UNL     1       7.759  13.382   0.615  0.00  0.00    +0.000 HD
ATOM     12  H   UNL     1       6.291  14.058  -0.035  0.00  0.00    +0.000 HD
BRANCH  10  13
ATOM     13  C   UNL     1       6.153  11.990   0.559  0.00  0.00    +0.000 C 
ATOM     14  C   UNL     1       5.806  11.903   1.848  0.00  0.00    +0.000 C 
ATOM     15  H   UNL     1       5.891  11.169  -0.106  0.00  0.00    +0.000 HD
ATOM     16  H   UNL     1       5.270  11.035   2.215  0.00  0.00    +0.000 HD
ATOM     17  H   UNL     1       6.048  12.688   2.554  0.00  0.00    +0.000 HD
ENDBRANCH  10  13
ENDBRANCH   1  10
BRANCH   5  18
ATOM     18  O   UNL     1       8.752  12.124  -5.272  0.00  0.00    +0.000 OA
ATOM     19  H   UNL     1       8.203  11.427  -5.672  0.00  0.00    +0.000 HD
ENDBRANCH   5  18
BRANCH   3  20
ATOM     20  O   UNL     1       6.715  13.966  -4.847  0.00  0.00    +0.000 OA
BRANCH  20  21
ATOM     21  C   UNL     1       5.838  15.046  -4.535  0.00  0.00    +0.000 C 
ATOM     22  H   UNL     1       4.820  14.822  -4.867  0.00  0.00    +0.000 HD
ATOM     23  H   UNL     1       6.189  15.974  -4.999  0.00  0.00    +0.000 HD
ATOM     24  H   UNL     1       5.832  15.181  -3.449  0.00  0.00    +0.000 HD
ENDBRANCH  20  21
ENDBRANCH   3  20
TORSDOF 5
ENDMDL
MODEL 3
REMARK VINA RESULT:    -4.730     25.979     27.966
REMARK INTER + INTRA:          -6.051
REMARK INTER:                  -5.815
REMARK INTRA:                  -0.236
REMARK UNBOUND:                -0.215
REMARK  Name = 3314
REMARK  5 active torsions:
REMARK  status: ('A' for Active; 'I' for Inactive)
REMARK    1  A    between atoms: O_1  and  C_6
REMARK    2  A    between atoms: O_1  and  C_11
REMARK    3  A    between atoms: O_2  and  C_8
REMARK    4  A    between atoms: C_3  and  C_4
REMARK    5  A    between atoms: C_4  and  C_10
REMARK                            x       y       z     vdW  Elec       q    Type
REMARK                         _______ _______ _______ _____ _____    ______ ____
ROOT
ATOM      1  C   UNL     1      -0.057  11.484  11.371  0.00  0.00    +0.000 A 
ATOM      2  C   UNL     1      -0.889  12.557  11.049  0.00  0.00    +0.000 A 
ATOM      3  C   UNL     1      -2.264  12.360  10.923  0.00  0.00    +0.000 A 
ATOM      4  C   UNL     1      -0.601  10.214  11.564  0.00  0.00    +0.000 A 
ATOM      5  C   UNL     1      -2.807  11.090  11.118  0.00  0.00    +0.000 A 
ATOM      6  C   UNL     1      -1.976  10.017  11.439  0.00  0.00    +0.000 A 
ATOM      7  H   UNL     1      -0.472  13.550  10.896  0.00  0.00    +0.000 HD
ATOM      8  H   UNL     1       0.037   9.371  11.817  0.00  0.00    +0.000 HD
ATOM      9  H   UNL     1      -2.386   9.023  11.594  0.00  0.00    +0.000 HD
ENDROOT
BRANCH   1  10
ATOM     10  C   UNL     1       1.413  11.697  11.506  0.00  0.00    +0.000 C 
ATOM     11  H   UNL     1       1.801  12.189  10.605  0.00  0.00    +0.000 HD
ATOM     12  H   UNL     1       1.609  12.403  12.322  0.00  0.00    +0.000 HD
BRANCH  10  13
ATOM     13  C   UNL     1       2.177  10.414  11.714  0.00  0.00    +0.000 C 
ATOM     14  C   UNL     1       3.448  10.229  11.343  0.00  0.00    +0.000 C 
ATOM     15  H   UNL     1       1.648   9.588  12.183  0.00  0.00    +0.000 HD
ATOM     16  H   UNL     1       3.938   9.276  11.515  0.00  0.00    +0.000 HD
ATOM     17  H   UNL     1       4.020  11.016  10.865  0.00  0.00    +0.000 HD
ENDBRANCH  10  13
ENDBRANCH   1  10
BRANCH   5  18
ATOM     18  O   UNL     1      -4.149  10.885  10.995  0.00  0.00    +0.000 OA
ATOM     19  H   UNL     1      -4.464  10.382  11.766  0.00  0.00    +0.000 HD
ENDBRANCH   5  18
BRANCH   3  20
ATOM     20  O   UNL     1      -3.067  13.415  10.608  0.00  0.00    +0.000 OA
BRANCH  20  21
ATOM     21  C   UNL     1      -2.903  13.992   9.315  0.00  0.00    +0.000 C 
ATOM     22  H   UNL     1      -2.056  14.685   9.308  0.00  0.00    +0.000 HD
ATOM     23  H   UNL     1      -3.816  14.511   9.005  0.00  0.00    +0.000 HD
ATOM     24  H   UNL     1      -2.702  13.186   8.603  0.00  0.00    +0.000 HD
ENDBRANCH  20  21
ENDBRANCH   3  20
TORSDOF 5
ENDMDL
MODEL 4
REMARK VINA RESULT:    -4.624      6.396      7.224
REMARK INTER + INTRA:          -5.920
REMARK INTER:                  -5.687
REMARK INTRA:                  -0.233
REMARK UNBOUND:                -0.215
REMARK  Name = 3314
REMARK  5 active torsions:
REMARK  status: ('A' for Active; 'I' for Inactive)
REMARK    1  A    between atoms: O_1  and  C_6
REMARK    2  A    between atoms: O_1  and  C_11
REMARK    3  A    between atoms: O_2  and  C_8
REMARK    4  A    between atoms: C_3  and  C_4
REMARK    5  A    between atoms: C_4  and  C_10
REMARK                            x       y       z     vdW  Elec       q    Type
REMARK                         _______ _______ _______ _____ _____    ______ ____
ROOT
ATOM      1  C   UNL     1      10.658  -8.980  -7.992  0.00  0.00    +0.000 A 
ATOM      2  C   UNL     1      10.188 -10.187  -8.512  0.00  0.00    +0.000 A 
ATOM      3  C   UNL     1       8.979 -10.223  -9.206  0.00  0.00    +0.000 A 
ATOM      4  C   UNL     1       9.917  -7.811  -8.164  0.00  0.00    +0.000 A 
ATOM      5  C   UNL     1       8.239  -9.054  -9.379  0.00  0.00    +0.000 A 
ATOM      6  C   UNL     1       8.708  -7.847  -8.859  0.00  0.00    +0.000 A 
ATOM      7  H   UNL     1      10.761 -11.102  -8.380  0.00  0.00    +0.000 HD
ATOM      8  H   UNL     1      10.273  -6.865  -7.765  0.00  0.00    +0.000 HD
ATOM      9  H   UNL     1       8.142  -6.929  -8.987  0.00  0.00    +0.000 HD
ENDROOT
BRANCH   1  10
ATOM     10  C   UNL     1      11.951  -8.942  -7.251  0.00  0.00    +0.000 C 
ATOM     11  H   UNL     1      12.449  -9.919  -7.322  0.00  0.00    +0.000 HD
ATOM     12  H   UNL     1      12.636  -8.239  -7.740  0.00  0.00    +0.000 HD
BRANCH  10  13
ATOM     13  C   UNL     1      11.786  -8.599  -5.792  0.00  0.00    +0.000 C 
ATOM     14  C   UNL     1      12.005  -9.455  -4.789  0.00  0.00    +0.000 C 
ATOM     15  H   UNL     1      11.452  -7.592  -5.551  0.00  0.00    +0.000 HD
ATOM     16  H   UNL     1      11.859  -9.145  -3.760  0.00  0.00    +0.000 HD
ATOM     17  H   UNL     1      12.332 -10.472  -4.973  0.00  0.00    +0.000 HD
ENDBRANCH  10  13
ENDBRANCH   1  10
BRANCH   5  18
ATOM     18  O   UNL     1       7.055  -9.077 -10.053  0.00  0.00    +0.000 OA
ATOM     19  H   UNL     1       7.183  -9.532 -10.904  0.00  0.00    +0.000 HD
ENDBRANCH   5  18
BRANCH   3  20
ATOM     20  O   UNL     1       8.530 -11.407  -9.709  0.00  0.00    +0.000 OA
BRANCH  20  21
ATOM     21  C   UNL     1       8.936 -12.595  -9.033  0.00  0.00    +0.000 C 
ATOM     22  H   UNL     1       9.409 -12.349  -8.077  0.00  0.00    +0.000 HD
ATOM     23  H   UNL     1       9.624 -13.176  -9.654  0.00  0.00    +0.000 HD
ATOM     24  H   UNL     1       8.045 -13.200  -8.838  0.00  0.00    +0.000 HD
ENDBRANCH  20  21
ENDBRANCH   3  20
TORSDOF 5
ENDMDL
MODEL 5
REMARK VINA RESULT:    -4.614      3.990      5.821
REMARK INTER + INTRA:          -5.908
REMARK INTER:                  -5.725
REMARK INTRA:                  -0.182
REMARK UNBOUND:                -0.215
REMARK  Name = 3314
REMARK  5 active torsions:
REMARK  status: ('A' for Active; 'I' for Inactive)
REMARK    1  A    between atoms: O_1  and  C_6
REMARK    2  A    between atoms: O_1  and  C_11
REMARK    3  A    between atoms: O_2  and  C_8
REMARK    4  A    between atoms: C_3  and  C_4
REMARK    5  A    between atoms: C_4  and  C_10
REMARK                            x       y       z     vdW  Elec       q    Type
REMARK                         _______ _______ _______ _____ _____    ______ ____
ROOT
ATOM      1  C   UNL     1      12.395  -9.784  -3.667  0.00  0.00    +0.000 A 
ATOM      2  C   UNL     1      11.819  -9.432  -4.888  0.00  0.00    +0.000 A 
ATOM      3  C   UNL     1      12.627  -9.022  -5.949  0.00  0.00    +0.000 A 
ATOM      4  C   UNL     1      13.779  -9.725  -3.507  0.00  0.00    +0.000 A 
ATOM      5  C   UNL     1      14.011  -8.965  -5.788  0.00  0.00    +0.000 A 
ATOM      6  C   UNL     1      14.588  -9.317  -4.567  0.00  0.00    +0.000 A 
ATOM      7  H   UNL     1      10.740  -9.475  -5.020  0.00  0.00    +0.000 HD
ATOM      8  H   UNL     1      14.240  -9.999  -2.561  0.00  0.00    +0.000 HD
ATOM      9  H   UNL     1      15.664  -9.277  -4.429  0.00  0.00    +0.000 HD
ENDROOT
BRANCH   1  10
ATOM     10  C   UNL     1      11.529 -10.221  -2.534  0.00  0.00    +0.000 C 
ATOM     11  H   UNL     1      10.654 -10.760  -2.922  0.00  0.00    +0.000 HD
ATOM     12  H   UNL     1      12.067 -10.956  -1.922  0.00  0.00    +0.000 HD
BRANCH  10  13
ATOM     13  C   UNL     1      11.043  -9.074  -1.686  0.00  0.00    +0.000 C 
ATOM     14  C   UNL     1      10.226  -9.210  -0.636  0.00  0.00    +0.000 C 
ATOM     15  H   UNL     1      11.370  -8.074  -1.963  0.00  0.00    +0.000 HD
ATOM     16  H   UNL     1       9.907  -8.340  -0.072  0.00  0.00    +0.000 HD
ATOM     17  H   UNL     1       9.864 -10.182  -0.321  0.00  0.00    +0.000 HD
ENDBRANCH  10  13
ENDBRANCH   1  10
BRANCH   5  18
ATOM     18  O   UNL     1      14.812  -8.566  -6.816  0.00  0.00    +0.000 OA
ATOM     19  H   UNL     1      15.189  -9.352  -7.248  0.00  0.00    +0.000 HD
ENDBRANCH   5  18
BRANCH   3  20
ATOM     20  O   UNL     1      12.054  -8.681  -7.136  0.00  0.00    +0.000 OA
BRANCH  20  21
ATOM     21  C   UNL     1      10.758  -9.212  -7.407  0.00  0.00    +0.000 C 
ATOM     22  H   UNL     1      10.587  -9.272  -8.487  0.00  0.00    +0.000 HD
ATOM     23  H   UNL     1       9.984  -8.598  -6.937  0.00  0.00    +0.000 HD
ATOM     24  H   UNL     1      10.707 -10.221  -6.988  0.00  0.00    +0.000 HD
ENDBRANCH  20  21
ENDBRANCH   3  20
TORSDOF 5
ENDMDL
MODEL 6
REMARK VINA RESULT:    -4.604     20.636     21.567
REMARK INTER + INTRA:          -5.895
REMARK INTER:                  -5.692
REMARK INTRA:                  -0.203
REMARK UNBOUND:                -0.215
REMARK  Name = 3314
REMARK  5 active torsions:
REMARK  status: ('A' for Active; 'I' for Inactive)
REMARK    1  A    between atoms: O_1  and  C_6
REMARK    2  A    between atoms: O_1  and  C_11
REMARK    3  A    between atoms: O_2  and  C_8
REMARK    4  A    between atoms: C_3  and  C_4
REMARK    5  A    between atoms: C_4  and  C_10
REMARK                            x       y       z     vdW  Elec       q    Type
REMARK                         _______ _______ _______ _____ _____    ______ ____
ROOT
ATOM      1  C   UNL     1      15.643   9.891   4.339  0.00  0.00    +0.000 A 
ATOM      2  C   UNL     1      16.619   9.008   3.877  0.00  0.00    +0.000 A 
ATOM      3  C   UNL     1      16.834   8.860   2.507  0.00  0.00    +0.000 A 
ATOM      4  C   UNL     1      14.882  10.626   3.431  0.00  0.00    +0.000 A 
ATOM      5  C   UNL     1      16.073   9.597   1.599  0.00  0.00    +0.000 A 
ATOM      6  C   UNL     1      15.097  10.480   2.060  0.00  0.00    +0.000 A 
ATOM      7  H   UNL     1      17.216   8.431   4.580  0.00  0.00    +0.000 HD
ATOM      8  H   UNL     1      14.119  11.319   3.778  0.00  0.00    +0.000 HD
ATOM      9  H   UNL     1      14.497  11.059   1.364  0.00  0.00    +0.000 HD
ENDROOT
BRANCH   1  10
ATOM     10  C   UNL     1      15.415  10.048   5.804  0.00  0.00    +0.000 C 
ATOM     11  H   UNL     1      15.702  11.060   6.119  0.00  0.00    +0.000 HD
ATOM     12  H   UNL     1      14.341   9.978   6.019  0.00  0.00    +0.000 HD
BRANCH  10  13
ATOM     13  C   UNL     1      16.191   9.056   6.632  0.00  0.00    +0.000 C 
ATOM     14  C   UNL     1      15.747   8.519   7.774  0.00  0.00    +0.000 C 
ATOM     15  H   UNL     1      17.181   8.775   6.278  0.00  0.00    +0.000 HD
ATOM     16  H   UNL     1      16.360   7.816   8.326  0.00  0.00    +0.000 HD
ATOM     17  H   UNL     1      14.771   8.769   8.176  0.00  0.00    +0.000 HD
ENDBRANCH  10  13
ENDBRANCH   1  10
BRANCH   5  18
ATOM     18  O   UNL     1      16.272   9.460   0.258  0.00  0.00    +0.000 OA
ATOM     19  H   UNL     1      15.864   8.629  -0.041  0.00  0.00    +0.000 HD
ENDBRANCH   5  18
BRANCH   3  20
ATOM     20  O   UNL     1      17.790   7.995   2.067  0.00  0.00    +0.000 OA
BRANCH  20  21
ATOM     21  C   UNL     1      19.007   7.941   2.808  0.00  0.00    +0.000 C 
ATOM     22  H   UNL     1      18.928   8.543   3.719  0.00  0.00    +0.000 HD
ATOM     23  H   UNL     1      19.845   8.292   2.198  0.00  0.00    +0.000 HD
ATOM     24  H   UNL     1      19.191   6.901   3.090  0.00  0.00    +0.000 HD
ENDBRANCH  20  21
ENDBRANCH   3  20
TORSDOF 5
ENDMDL
MODEL 7
REMARK VINA RESULT:    -4.580     22.446     24.130
REMARK INTER + INTRA:          -5.865
REMARK INTER:                  -5.643
REMARK INTRA:                  -0.222
REMARK UNBOUND:                -0.215
REMARK  Name = 3314
REMARK  5 active torsions:
REMARK  status: ('A' for Active; 'I' for Inactive)
REMARK    1  A    between atoms: O_1  and  C_6
REMARK    2  A    between atoms: O_1  and  C_11
REMARK    3  A    between atoms: O_2  and  C_8
REMARK    4  A    between atoms: C_3  and  C_4
REMARK    5  A    between atoms: C_4  and  C_10
REMARK                            x       y       z     vdW  Elec       q    Type
REMARK                         _______ _______ _______ _____ _____    ______ ____
ROOT
ATOM      1  C   UNL     1       6.341  12.534   1.192  0.00  0.00    +0.000 A 
ATOM      2  C   UNL     1       6.602  12.202  -0.138  0.00  0.00    +0.000 A 
ATOM      3  C   UNL     1       7.417  13.024  -0.915  0.00  0.00    +0.000 A 
ATOM      4  C   UNL     1       6.894  13.689   1.744  0.00  0.00    +0.000 A 
ATOM      5  C   UNL     1       7.971  14.179  -0.362  0.00  0.00    +0.000 A 
ATOM      6  C   UNL     1       7.710  14.511   0.968  0.00  0.00    +0.000 A 
ATOM      7  H   UNL     1       6.173  11.303  -0.574  0.00  0.00    +0.000 HD
ATOM      8  H   UNL     1       6.699  13.957   2.779  0.00  0.00    +0.000 HD
ATOM      9  H   UNL     1       8.136  15.407   1.411  0.00  0.00    +0.000 HD
ENDROOT
BRANCH   1  10
ATOM     10  C   UNL     1       5.469  11.653   2.022  0.00  0.00    +0.000 C 
ATOM     11  H   UNL     1       4.859  11.014   1.370  0.00  0.00    +0.000 HD
ATOM     12  H   UNL     1       6.091  10.958   2.600  0.00  0.00    +0.000 HD
BRANCH  10  13
ATOM     13  C   UNL     1       4.545  12.424   2.930  0.00  0.00    +0.000 C 
ATOM     14  C   UNL     1       4.593  12.378   4.265  0.00  0.00    +0.000 C 
ATOM     15  H   UNL     1       3.784  13.043   2.459  0.00  0.00    +0.000 HD
ATOM     16  H   UNL     1       3.892  12.952   4.861  0.00  0.00    +0.000 HD
ATOM     17  H   UNL     1       5.326  11.772   4.785  0.00  0.00    +0.000 HD
ENDBRANCH  10  13
ENDBRANCH   1  10
BRANCH   5  18
ATOM     18  O   UNL     1       8.769  14.991  -1.111  0.00  0.00    +0.000 OA
ATOM     19  H   UNL     1       8.866  15.846  -0.657  0.00  0.00    +0.000 HD
ENDBRANCH   5  18
BRANCH   3  20
ATOM     20  O   UNL     1       7.666  12.690  -2.212  0.00  0.00    +0.000 OA
BRANCH  20  21
ATOM     21  C   UNL     1       8.714  11.754  -2.451  0.00  0.00    +0.000 C 
ATOM     22  H   UNL     1       9.418  12.147  -3.192  0.00  0.00    +0.000 HD
ATOM     23  H   UNL     1       8.307  10.797  -2.791  0.00  0.00    +0.000 HD
ATOM     24  H   UNL     1       9.250  11.592  -1.511  0.00  0.00    +0.000 HD
ENDBRANCH  20  21
ENDBRANCH   3  20
TORSDOF 5
ENDMDL
MODEL 8
REMARK VINA RESULT:    -4.537      6.484      7.582
REMARK INTER + INTRA:          -5.813
REMARK INTER:                  -5.597
REMARK INTRA:                  -0.216
REMARK UNBOUND:                -0.215
REMARK  Name = 3314
REMARK  5 active torsions:
REMARK  status: ('A' for Active; 'I' for Inactive)
REMARK    1  A    between atoms: O_1  and  C_6
REMARK    2  A    between atoms: O_1  and  C_11
REMARK    3  A    between atoms: O_2  and  C_8
REMARK    4  A    between atoms: C_3  and  C_4
REMARK    5  A    between atoms: C_4  and  C_10
REMARK                            x       y       z     vdW  Elec       q    Type
REMARK                         _______ _______ _______ _____ _____    ______ ____
ROOT
ATOM      1  C   UNL     1      10.663  -8.996  -7.657  0.00  0.00    +0.000 A 
ATOM      2  C   UNL     1      10.067  -7.798  -8.053  0.00  0.00    +0.000 A 
ATOM      3  C   UNL     1       8.924  -7.818  -8.853  0.00  0.00    +0.000 A 
ATOM      4  C   UNL     1      10.116 -10.214  -8.062  0.00  0.00    +0.000 A 
ATOM      5  C   UNL     1       8.378  -9.036  -9.257  0.00  0.00    +0.000 A 
ATOM      6  C   UNL     1       8.972 -10.234  -8.861  0.00  0.00    +0.000 A 
ATOM      7  H   UNL     1      10.489  -6.845  -7.741  0.00  0.00    +0.000 HD
ATOM      8  H   UNL     1      10.569 -11.154  -7.759  0.00  0.00    +0.000 HD
ATOM      9  H   UNL     1       8.557 -11.189  -9.169  0.00  0.00    +0.000 HD
ENDROOT
BRANCH   1  10
ATOM     10  C   UNL     1      11.884  -8.973  -6.802  0.00  0.00    +0.000 C 
ATOM     11  H   UNL     1      12.745  -9.343  -7.375  0.00  0.00    +0.000 HD
ATOM     12  H   UNL     1      12.136  -7.936  -6.548  0.00  0.00    +0.000 HD
BRANCH  10  13
ATOM     13  C   UNL     1      11.747  -9.810  -5.556  0.00  0.00    +0.000 C 
ATOM     14  C   UNL     1      12.121  -9.408  -4.336  0.00  0.00    +0.000 C 
ATOM     15  H   UNL     1      11.331 -10.809  -5.668  0.00  0.00    +0.000 HD
ATOM     16  H   UNL     1      12.002 -10.065  -3.481  0.00  0.00    +0.000 HD
ATOM     17  H   UNL     1      12.548  -8.426  -4.169  0.00  0.00    +0.000 HD
ENDBRANCH  10  13
ENDBRANCH   1  10
BRANCH   5  18
ATOM     18  O   UNL     1       7.262  -9.068 -10.039  0.00  0.00    +0.000 OA
ATOM     19  H   UNL     1       6.980  -8.156 -10.227  0.00  0.00    +0.000 HD
ENDBRANCH   5  18
BRANCH   3  20
ATOM     20  O   UNL     1       8.352  -6.642  -9.233  0.00  0.00    +0.000 OA
BRANCH  20  21
ATOM     21  C   UNL     1       9.050  -5.444  -8.902  0.00  0.00    +0.000 C 
ATOM     22  H   UNL     1       8.375  -4.582  -8.946  0.00  0.00    +0.000 HD
ATOM     23  H   UNL     1       9.897  -5.292  -9.578  0.00  0.00    +0.000 HD
ATOM     24  H   UNL     1       9.431  -5.539  -7.881  0.00  0.00    +0.000 HD
ENDBRANCH  20  21
ENDBRANCH   3  20
TORSDOF 5
ENDMDL
MODEL 9
REMARK VINA RESULT:    -4.524     19.934     21.238
REMARK INTER + INTRA:          -5.796
REMARK INTER:                  -5.575
REMARK INTRA:                  -0.221
REMARK UNBOUND:                -0.215
REMARK  Name = 3314
REMARK  5 active torsions:
REMARK  status: ('A' for Active; 'I' for Inactive)
REMARK    1  A    between atoms: O_1  and  C_6
REMARK    2  A    between atoms: O_1  and  C_11
REMARK    3  A    between atoms: O_2  and  C_8
REMARK    4  A    between atoms: C_3  and  C_4
REMARK    5  A    between atoms: C_4  and  C_10
REMARK                            x       y       z     vdW  Elec       q    Type
REMARK                         _______ _______ _______ _____ _____    ______ ____
ROOT
ATOM      1  C   UNL     1      16.791   9.196   1.510  0.00  0.00    +0.000 A 
ATOM      2  C   UNL     1      18.019   9.361   0.868  0.00  0.00    +0.000 A 
ATOM      3  C   UNL     1      19.102   8.553   1.214  0.00  0.00    +0.000 A 
ATOM      4  C   UNL     1      16.647   8.224   2.500  0.00  0.00    +0.000 A 
ATOM      5  C   UNL     1      18.957   7.580   2.203  0.00  0.00    +0.000 A 
ATOM      6  C   UNL     1      17.730   7.415   2.846  0.00  0.00    +0.000 A 
ATOM      7  H   UNL     1      18.138  10.118   0.096  0.00  0.00    +0.000 HD
ATOM      8  H   UNL     1      15.696   8.085   3.007  0.00  0.00    +0.000 HD
ATOM      9  H   UNL     1      17.603   6.661   3.618  0.00  0.00    +0.000 HD
ENDROOT
BRANCH   1  10
ATOM     10  C   UNL     1      15.635  10.061   1.139  0.00  0.00    +0.000 C 
ATOM     11  H   UNL     1      15.981  10.897   0.518  0.00  0.00    +0.000 HD
ATOM     12  H   UNL     1      14.945   9.498   0.498  0.00  0.00    +0.000 HD
BRANCH  10  13
ATOM     13  C   UNL     1      14.911  10.625   2.335  0.00  0.00    +0.000 C 
ATOM     14  C   UNL     1      13.802  11.368   2.261  0.00  0.00    +0.000 C 
ATOM     15  H   UNL     1      15.335  10.422   3.316  0.00  0.00    +0.000 HD
ATOM     16  H   UNL     1      13.335  11.750   3.162  0.00  0.00    +0.000 HD
ATOM     17  H   UNL     1      13.343  11.607   1.309  0.00  0.00    +0.000 HD
ENDBRANCH  10  13
ENDBRANCH   1  10
BRANCH   5  18
ATOM     18  O   UNL     1      20.007   6.785   2.552  0.00  0.00    +0.000 OA
ATOM     19  H   UNL     1      20.831   7.188   2.228  0.00  0.00    +0.000 HD
ENDBRANCH   5  18
BRANCH   3  20
ATOM     20  O   UNL     1      20.295   8.723   0.580  0.00  0.00    +0.000 OA
BRANCH  20  21
ATOM     21  C   UNL     1      20.420   8.168  -0.727  0.00  0.00    +0.000 C 
ATOM     22  H   UNL     1      20.242   7.088  -0.704  0.00  0.00    +0.000 HD
ATOM     23  H   UNL     1      21.411   8.377  -1.142  0.00  0.00    +0.000 HD
ATOM     24  H   UNL     1      19.667   8.633  -1.370  0.00  0.00    +0.000 HD
ENDBRANCH  20  21
ENDBRANCH   3  20
TORSDOF 5
ENDMDL
MODEL 10
REMARK VINA RESULT:    -4.421      2.890      4.718
REMARK INTER + INTRA:          -5.670
REMARK INTER:                  -5.455
REMARK INTRA:                  -0.215
REMARK UNBOUND:                -0.215
REMARK  Name = 3314
REMARK  5 active torsions:
REMARK  status: ('A' for Active; 'I' for Inactive)
REMARK    1  A    between atoms: O_1  and  C_6
REMARK    2  A    between atoms: O_1  and  C_11
REMARK    3  A    between atoms: O_2  and  C_8
REMARK    4  A    between atoms: C_3  and  C_4
REMARK    5  A    between atoms: C_4  and  C_10
REMARK                            x       y       z     vdW  Elec       q    Type
REMARK                         _______ _______ _______ _____ _____    ______ ____
ROOT
ATOM      1  C   UNL     1      11.770  -9.998  -2.668  0.00  0.00    +0.000 A 
ATOM      2  C   UNL     1      11.083 -11.044  -3.285  0.00  0.00    +0.000 A 
ATOM      3  C   UNL     1      11.745 -11.876  -4.188  0.00  0.00    +0.000 A 
ATOM      4  C   UNL     1      13.118  -9.783  -2.955  0.00  0.00    +0.000 A 
ATOM      5  C   UNL     1      13.093 -11.661  -4.474  0.00  0.00    +0.000 A 
ATOM      6  C   UNL     1      13.780 -10.615  -3.858  0.00  0.00    +0.000 A 
ATOM      7  H   UNL     1      10.032 -11.217  -3.065  0.00  0.00    +0.000 HD
ATOM      8  H   UNL     1      13.664  -8.972  -2.480  0.00  0.00    +0.000 HD
ATOM      9  H   UNL     1      14.830 -10.437  -4.072  0.00  0.00    +0.000 HD
ENDROOT
BRANCH   1  10
ATOM     10  C   UNL     1      11.061  -9.110  -1.702  0.00  0.00    +0.000 C 
ATOM     11  H   UNL     1      11.781  -8.688  -0.988  0.00  0.00    +0.000 HD
ATOM     12  H   UNL     1      10.648  -8.243  -2.233  0.00  0.00    +0.000 HD
BRANCH  10  13
ATOM     13  C   UNL     1       9.984  -9.823  -0.925  0.00  0.00    +0.000 C 
ATOM     14  C   UNL     1       8.804  -9.281  -0.605  0.00  0.00    +0.000 C 
ATOM     15  H   UNL     1      10.196 -10.838  -0.595  0.00  0.00    +0.000 HD
ATOM     16  H   UNL     1       8.075  -9.847  -0.036  0.00  0.00    +0.000 HD
ATOM     17  H   UNL     1       8.545  -8.271  -0.902  0.00  0.00    +0.000 HD
ENDBRANCH  10  13
ENDBRANCH   1  10
BRANCH   5  18
ATOM     18  O   UNL     1      13.750 -12.465  -5.356  0.00  0.00    +0.000 OA
ATOM     19  H   UNL     1      13.631 -13.393  -5.089  0.00  0.00    +0.000 HD
ENDBRANCH   5  18
BRANCH   3  20
ATOM     20  O   UNL     1      11.065 -12.894  -4.784  0.00  0.00    +0.000 OA
BRANCH  20  21
ATOM     21  C   UNL     1      10.640 -13.968  -3.948  0.00  0.00    +0.000 C 
ATOM     22  H   UNL     1       9.756 -14.457  -4.370  0.00  0.00    +0.000 HD
ATOM     23  H   UNL     1      10.421 -13.606  -2.938  0.00  0.00    +0.000 HD
ATOM     24  H   UNL     1      11.451 -14.699  -3.888  0.00  0.00    +0.000 HD
ENDBRANCH  20  21
ENDBRANCH   3  20
TORSDOF 5
ENDMDL
