MODEL 1
REMARK VINA RESULT:    -5.125      0.000      0.000
REMARK INTER + INTRA:          -7.822
REMARK INTER:                  -7.389
REMARK INTRA:                  -0.434
REMARK UNBOUND:                -0.300
REMARK  Name = 1549026
REMARK  10 active torsions:
REMARK  status: ('A' for Active; 'I' for Inactive)
REMARK    1  A    between atoms: O_1  and  C_10
REMARK    2  A    between atoms: O_1  and  C_13
REMARK    3  A    between atoms: C_3  and  C_4
REMARK    4  A    between atoms: C_3  and  C_5
REMARK    5  A    between atoms: C_4  and  C_6
REMARK    6  A    between atoms: C_5  and  C_8
REMARK    7  A    between atoms: C_7  and  C_10
REMARK    8  A    between atoms: C_9  and  C_11
REMARK    9  A    between atoms: C_9  and  C_12
REMARK   10  A    between atoms: C_13  and  C_14
REMARK                            x       y       z     vdW  Elec       q    Type
REMARK                         _______ _______ _______ _____ _____    ______ ____
ROOT
ATOM      1  C   UNL     1       8.022 -12.722   0.419  0.00  0.00    +0.000 C 
ATOM      2  H   UNL     1       8.782 -13.514   0.419  0.00  0.00    +0.000 HD
ATOM      3  H   UNL     1       8.375 -11.964   1.130  0.00  0.00    +0.000 HD
ENDROOT
BRANCH   1   4
ATOM      4  C   UNL     1       7.947 -12.100  -0.982  0.00  0.00    +0.000 C 
ATOM      5  H   UNL     1       7.052 -11.479  -1.062  0.00  0.00    +0.000 HD
ATOM      6  H   UNL     1       7.808 -12.912  -1.707  0.00  0.00    +0.000 HD
BRANCH   4   7
ATOM      7  C   UNL     1       9.205 -11.366  -1.357  0.00  0.00    +0.000 C 
ATOM      8  C   UNL     1       9.526 -10.084  -1.101  0.00  0.00    +0.000 C 
ATOM      9  H   UNL     1       9.917 -11.965  -1.922  0.00  0.00    +0.000 HD
BRANCH   8  10
ATOM     10  C   UNL     1      10.843  -9.522  -1.569  0.00  0.00    +0.000 C 
ATOM     11  H   UNL     1      11.670 -10.125  -1.181  0.00  0.00    +0.000 HD
ATOM     12  H   UNL     1      10.927  -9.507  -2.661  0.00  0.00    +0.000 HD
ATOM     13  H   UNL     1      10.964  -8.494  -1.213  0.00  0.00    +0.000 HD
ENDBRANCH   8  10
BRANCH   8  14
ATOM     14  C   UNL     1       8.671  -9.107  -0.346  0.00  0.00    +0.000 C 
ATOM     15  H   UNL     1       8.719  -9.319   0.728  0.00  0.00    +0.000 HD
ATOM     16  H   UNL     1       8.965  -8.065  -0.478  0.00  0.00    +0.000 HD
ATOM     17  H   UNL     1       7.627  -9.199  -0.665  0.00  0.00    +0.000 HD
ENDBRANCH   8  14
ENDBRANCH   4   7
ENDBRANCH   1   4
BRANCH   1  18
ATOM     18  C   UNL     1       6.709 -13.306   0.898  0.00  0.00    +0.000 C 
ATOM     19  C   UNL     1       5.823 -12.664   1.684  0.00  0.00    +0.000 C 
ATOM     20  H   UNL     1       6.055 -11.639   1.969  0.00  0.00    +0.000 HD
BRANCH  18  21
ATOM     21  C   UNL     1       6.440 -14.723   0.460  0.00  0.00    +0.000 C 
ATOM     22  H   UNL     1       7.269 -15.369   0.767  0.00  0.00    +0.000 HD
ATOM     23  H   UNL     1       6.350 -14.779  -0.628  0.00  0.00    +0.000 HD
ATOM     24  H   UNL     1       5.527 -15.163   0.862  0.00  0.00    +0.000 HD
ENDBRANCH  18  21
BRANCH  19  25
ATOM     25  C   UNL     1       4.527 -13.182   2.223  0.00  0.00    +0.000 C 
ATOM     26  H   UNL     1       4.747 -13.845   3.069  0.00  0.00    +0.000 HD
ATOM     27  H   UNL     1       3.968 -13.772   1.491  0.00  0.00    +0.000 HD
BRANCH  25  28
ATOM     28  O   UNL     1       3.755 -12.081   2.681  0.00  0.00    +0.000 OA
BRANCH  28  30
ATOM     29  O   UNL     1       1.508 -12.586   2.502  0.00  0.00    +0.000 OA
ATOM     30  C   UNL     1       2.502 -11.968   2.145  0.00  0.00    +0.000 C 
BRANCH  30  31
ATOM     31  C   UNL     1       2.511 -10.961   1.035  0.00  0.00    +0.000 C 
ATOM     32  H   UNL     1       1.737 -11.208   0.304  0.00  0.00    +0.000 HD
ATOM     33  H   UNL     1       3.495 -10.942   0.562  0.00  0.00    +0.000 HD
ATOM     34  H   UNL     1       2.300  -9.969   1.443  0.00  0.00    +0.000 HD
ENDBRANCH  30  31
ENDBRANCH  28  30
ENDBRANCH  25  28
ENDBRANCH  19  25
ENDBRANCH   1  18
TORSDOF 10
ENDMDL
MODEL 2
REMARK VINA RESULT:    -5.120     17.035     17.837
REMARK INTER + INTRA:          -7.814
REMARK INTER:                  -7.146
REMARK INTRA:                  -0.668
REMARK UNBOUND:                -0.300
REMARK  Name = 1549026
REMARK  10 active torsions:
REMARK  status: ('A' for Active; 'I' for Inactive)
REMARK    1  A    between atoms: O_1  and  C_10
REMARK    2  A    between atoms: O_1  and  C_13
REMARK    3  A    between atoms: C_3  and  C_4
REMARK    4  A    between atoms: C_3  and  C_5
REMARK    5  A    between atoms: C_4  and  C_6
REMARK    6  A    between atoms: C_5  and  C_8
REMARK    7  A    between atoms: C_7  and  C_10
REMARK    8  A    between atoms: C_9  and  C_11
REMARK    9  A    between atoms: C_9  and  C_12
REMARK   10  A    between atoms: C_13  and  C_14
REMARK                            x       y       z     vdW  Elec       q    Type
REMARK                         _______ _______ _______ _____ _____    ______ ____
ROOT
ATOM      1  C   UNL     1      -0.148  -6.939  15.734  0.00  0.00    +0.000 C 
ATOM      2  H   UNL     1      -1.210  -7.136  15.542  0.00  0.00    +0.000 HD
ATOM      3  H   UNL     1       0.327  -6.850  14.748  0.00  0.00    +0.000 HD
ENDROOT
BRANCH   1   4
ATOM      4  C   UNL     1      -0.012  -5.604  16.479  0.00  0.00    +0.000 C 
ATOM      5  H   UNL     1       0.446  -5.771  17.456  0.00  0.00    +0.000 HD
ATOM      6  H   UNL     1      -1.022  -5.228  16.688  0.00  0.00    +0.000 HD
BRANCH   4   7
ATOM      7  C   UNL     1       0.703  -4.559  15.668  0.00  0.00    +0.000 C 
ATOM      8  C   UNL     1       1.993  -4.182  15.752  0.00  0.00    +0.000 C 
ATOM      9  H   UNL     1       0.070  -4.047  14.944  0.00  0.00    +0.000 HD
BRANCH   8  10
ATOM     10  C   UNL     1       2.528  -3.101  14.849  0.00  0.00    +0.000 C 
ATOM     11  H   UNL     1       3.623  -3.095  14.875  0.00  0.00    +0.000 HD
ATOM     12  H   UNL     1       2.222  -3.237  13.807  0.00  0.00    +0.000 HD
ATOM     13  H   UNL     1       2.167  -2.121  15.177  0.00  0.00    +0.000 HD
ENDBRANCH   8  10
BRANCH   8  14
ATOM     14  C   UNL     1       3.010  -4.765  16.690  0.00  0.00    +0.000 C 
ATOM     15  H   UNL     1       3.906  -5.061  16.133  0.00  0.00    +0.000 HD
ATOM     16  H   UNL     1       3.335  -4.080  17.474  0.00  0.00    +0.000 HD
ATOM     17  H   UNL     1       2.601  -5.656  17.178  0.00  0.00    +0.000 HD
ENDBRANCH   8  14
ENDBRANCH   4   7
ENDBRANCH   1   4
BRANCH   1  18
ATOM     18  C   UNL     1       0.439  -8.117  16.483  0.00  0.00    +0.000 C 
ATOM     19  C   UNL     1      -0.256  -8.936  17.296  0.00  0.00    +0.000 C 
ATOM     20  H   UNL     1      -1.326  -8.754  17.397  0.00  0.00    +0.000 HD
BRANCH  18  21
ATOM     21  C   UNL     1       1.920  -8.324  16.293  0.00  0.00    +0.000 C 
ATOM     22  H   UNL     1       2.097  -8.946  15.409  0.00  0.00    +0.000 HD
ATOM     23  H   UNL     1       2.352  -8.834  17.158  0.00  0.00    +0.000 HD
ATOM     24  H   UNL     1       2.499  -7.410  16.161  0.00  0.00    +0.000 HD
ENDBRANCH  18  21
BRANCH  19  25
ATOM     25  C   UNL     1       0.256 -10.095  18.092  0.00  0.00    +0.000 C 
ATOM     26  H   UNL     1       0.713  -9.705  19.011  0.00  0.00    +0.000 HD
ATOM     27  H   UNL     1       1.028 -10.664  17.567  0.00  0.00    +0.000 HD
BRANCH  25  28
ATOM     28  O   UNL     1      -0.842 -10.929  18.435  0.00  0.00    +0.000 OA
BRANCH  28  30
ATOM     29  O   UNL     1      -2.479 -11.617  16.957  0.00  0.00    +0.000 OA
ATOM     30  C   UNL     1      -1.349 -11.693  17.420  0.00  0.00    +0.000 C 
BRANCH  30  31
ATOM     31  C   UNL     1      -0.309 -12.660  16.941  0.00  0.00    +0.000 C 
ATOM     32  H   UNL     1       0.030 -13.282  17.773  0.00  0.00    +0.000 HD
ATOM     33  H   UNL     1       0.529 -12.113  16.502  0.00  0.00    +0.000 HD
ATOM     34  H   UNL     1      -0.742 -13.309  16.175  0.00  0.00    +0.000 HD
ENDBRANCH  30  31
ENDBRANCH  28  30
ENDBRANCH  25  28
ENDBRANCH  19  25
ENDBRANCH   1  18
TORSDOF 10
ENDMDL
MODEL 3
REMARK VINA RESULT:    -4.977     24.295     25.999
REMARK INTER + INTRA:          -7.604
REMARK INTER:                  -7.189
REMARK INTRA:                  -0.415
REMARK UNBOUND:                -0.300
REMARK  Name = 1549026
REMARK  10 active torsions:
REMARK  status: ('A' for Active; 'I' for Inactive)
REMARK    1  A    between atoms: O_1  and  C_10
REMARK    2  A    between atoms: O_1  and  C_13
REMARK    3  A    between atoms: C_3  and  C_4
REMARK    4  A    between atoms: C_3  and  C_5
REMARK    5  A    between atoms: C_4  and  C_6
REMARK    6  A    between atoms: C_5  and  C_8
REMARK    7  A    between atoms: C_7  and  C_10
REMARK    8  A    between atoms: C_9  and  C_11
REMARK    9  A    between atoms: C_9  and  C_12
REMARK   10  A    between atoms: C_13  and  C_14
REMARK                            x       y       z     vdW  Elec       q    Type
REMARK                         _______ _______ _______ _____ _____    ______ ____
ROOT
ATOM      1  C   UNL     1       8.096  12.402  -1.779  0.00  0.00    +0.000 C 
ATOM      2  H   UNL     1       8.994  12.808  -1.297  0.00  0.00    +0.000 HD
ATOM      3  H   UNL     1       8.076  11.333  -1.530  0.00  0.00    +0.000 HD
ENDROOT
BRANCH   1   4
ATOM      4  C   UNL     1       6.857  13.079  -1.179  0.00  0.00    +0.000 C 
ATOM      5  H   UNL     1       6.162  13.352  -1.977  0.00  0.00    +0.000 HD
ATOM      6  H   UNL     1       7.173  14.028  -0.727  0.00  0.00    +0.000 HD
BRANCH   4   7
ATOM      7  C   UNL     1       6.213  12.255  -0.098  0.00  0.00    +0.000 C 
ATOM      8  C   UNL     1       6.204  12.485   1.228  0.00  0.00    +0.000 C 
ATOM      9  H   UNL     1       5.716  11.356  -0.461  0.00  0.00    +0.000 HD
BRANCH   8  10
ATOM     10  C   UNL     1       5.504  11.531   2.160  0.00  0.00    +0.000 C 
ATOM     11  H   UNL     1       5.574  11.891   3.192  0.00  0.00    +0.000 HD
ATOM     12  H   UNL     1       4.442  11.415   1.921  0.00  0.00    +0.000 HD
ATOM     13  H   UNL     1       5.967  10.540   2.105  0.00  0.00    +0.000 HD
ENDBRANCH   8  10
BRANCH   8  14
ATOM     14  C   UNL     1       6.840  13.662   1.910  0.00  0.00    +0.000 C 
ATOM     15  H   UNL     1       7.931  13.581   1.858  0.00  0.00    +0.000 HD
ATOM     16  H   UNL     1       6.571  14.626   1.475  0.00  0.00    +0.000 HD
ATOM     17  H   UNL     1       6.549  13.684   2.967  0.00  0.00    +0.000 HD
ENDBRANCH   8  14
ENDBRANCH   4   7
ENDBRANCH   1   4
BRANCH   1  18
ATOM     18  C   UNL     1       8.223  12.580  -3.278  0.00  0.00    +0.000 C 
ATOM     19  C   UNL     1       9.230  12.095  -4.028  0.00  0.00    +0.000 C 
ATOM     20  H   UNL     1       9.994  11.505  -3.523  0.00  0.00    +0.000 HD
BRANCH  18  21
ATOM     21  C   UNL     1       7.129  13.395  -3.920  0.00  0.00    +0.000 C 
ATOM     22  H   UNL     1       7.567  14.115  -4.621  0.00  0.00    +0.000 HD
ATOM     23  H   UNL     1       6.570  13.954  -3.165  0.00  0.00    +0.000 HD
ATOM     24  H   UNL     1       6.390  12.817  -4.477  0.00  0.00    +0.000 HD
ENDBRANCH  18  21
BRANCH  19  25
ATOM     25  C   UNL     1       9.441  12.256  -5.501  0.00  0.00    +0.000 C 
ATOM     26  H   UNL     1       8.654  12.913  -5.891  0.00  0.00    +0.000 HD
ATOM     27  H   UNL     1       9.369  11.311  -6.046  0.00  0.00    +0.000 HD
BRANCH  25  28
ATOM     28  O   UNL     1      10.707  12.867  -5.713  0.00  0.00    +0.000 OA
BRANCH  28  30
ATOM     29  O   UNL     1      11.658  14.524  -7.012  0.00  0.00    +0.000 OA
ATOM     30  C   UNL     1      10.801  13.673  -6.814  0.00  0.00    +0.000 C 
BRANCH  30  31
ATOM     31  C   UNL     1       9.687  13.366  -7.768  0.00  0.00    +0.000 C 
ATOM     32  H   UNL     1      10.083  12.849  -8.646  0.00  0.00    +0.000 HD
ATOM     33  H   UNL     1       9.185  14.291  -8.060  0.00  0.00    +0.000 HD
ATOM     34  H   UNL     1       8.959  12.713  -7.278  0.00  0.00    +0.000 HD
ENDBRANCH  30  31
ENDBRANCH  28  30
ENDBRANCH  25  28
ENDBRANCH  19  25
ENDBRANCH   1  18
TORSDOF 10
ENDMDL
MODEL 4
REMARK VINA RESULT:    -4.975      2.882      5.309
REMARK INTER + INTRA:          -7.602
REMARK INTER:                  -7.238
REMARK INTRA:                  -0.364
REMARK UNBOUND:                -0.300
REMARK  Name = 1549026
REMARK  10 active torsions:
REMARK  status: ('A' for Active; 'I' for Inactive)
REMARK    1  A    between atoms: O_1  and  C_10
REMARK    2  A    between atoms: O_1  and  C_13
REMARK    3  A    between atoms: C_3  and  C_4
REMARK    4  A    between atoms: C_3  and  C_5
REMARK    5  A    between atoms: C_4  and  C_6
REMARK    6  A    between atoms: C_5  and  C_8
REMARK    7  A    between atoms: C_7  and  C_10
REMARK    8  A    between atoms: C_9  and  C_11
REMARK    9  A    between atoms: C_9  and  C_12
REMARK   10  A    between atoms: C_13  and  C_14
REMARK                            x       y       z     vdW  Elec       q    Type
REMARK                         _______ _______ _______ _____ _____    ______ ____
ROOT
ATOM      1  C   UNL     1      11.108 -10.598  -2.445  0.00  0.00    +0.000 C 
ATOM      2  H   UNL     1      10.598 -10.794  -3.396  0.00  0.00    +0.000 HD
ATOM      3  H   UNL     1      11.633 -11.526  -2.185  0.00  0.00    +0.000 HD
ENDROOT
BRANCH   1   4
ATOM      4  C   UNL     1      12.139  -9.479  -2.650  0.00  0.00    +0.000 C 
ATOM      5  H   UNL     1      12.425  -9.060  -1.683  0.00  0.00    +0.000 HD
ATOM      6  H   UNL     1      11.648  -8.660  -3.192  0.00  0.00    +0.000 HD
BRANCH   4   7
ATOM      7  C   UNL     1      13.319  -9.923  -3.469  0.00  0.00    +0.000 C 
ATOM      8  C   UNL     1      13.589  -9.641  -4.757  0.00  0.00    +0.000 C 
ATOM      9  H   UNL     1      14.015 -10.567  -2.933  0.00  0.00    +0.000 HD
BRANCH   8  10
ATOM     10  C   UNL     1      14.830 -10.189  -5.411  0.00  0.00    +0.000 C 
ATOM     11  H   UNL     1      15.717  -9.666  -5.036  0.00  0.00    +0.000 HD
ATOM     12  H   UNL     1      14.969 -11.258  -5.217  0.00  0.00    +0.000 HD
ATOM     13  H   UNL     1      14.778 -10.052  -6.496  0.00  0.00    +0.000 HD
ENDBRANCH   8  10
BRANCH   8  14
ATOM     14  C   UNL     1      12.746  -8.780  -5.654  0.00  0.00    +0.000 C 
ATOM     15  H   UNL     1      12.562  -7.811  -5.178  0.00  0.00    +0.000 HD
ATOM     16  H   UNL     1      13.198  -8.576  -6.626  0.00  0.00    +0.000 HD
ATOM     17  H   UNL     1      11.779  -9.262  -5.834  0.00  0.00    +0.000 HD
ENDBRANCH   8  14
ENDBRANCH   4   7
ENDBRANCH   1   4
BRANCH   1  18
ATOM     18  C   UNL     1      10.068 -10.283  -1.390  0.00  0.00    +0.000 C 
ATOM     19  C   UNL     1       9.047 -11.092  -1.049  0.00  0.00    +0.000 C 
ATOM     20  H   UNL     1       8.984 -12.058  -1.549  0.00  0.00    +0.000 HD
BRANCH  18  21
ATOM     21  C   UNL     1      10.216  -8.937  -0.726  0.00  0.00    +0.000 C 
ATOM     22  H   UNL     1      10.525  -9.071   0.317  0.00  0.00    +0.000 HD
ATOM     23  H   UNL     1       9.266  -8.397  -0.731  0.00  0.00    +0.000 HD
ATOM     24  H   UNL     1      10.944  -8.272  -1.191  0.00  0.00    +0.000 HD
ENDBRANCH  18  21
BRANCH  19  25
ATOM     25  C   UNL     1       7.966 -10.839  -0.046  0.00  0.00    +0.000 C 
ATOM     26  H   UNL     1       7.366  -9.990  -0.395  0.00  0.00    +0.000 HD
ATOM     27  H   UNL     1       8.356 -10.571   0.940  0.00  0.00    +0.000 HD
BRANCH  25  28
ATOM     28  O   UNL     1       7.142 -11.993   0.033  0.00  0.00    +0.000 OA
BRANCH  28  30
ATOM     29  O   UNL     1       6.136 -12.136   2.108  0.00  0.00    +0.000 OA
ATOM     30  C   UNL     1       6.961 -12.512   1.286  0.00  0.00    +0.000 C 
BRANCH  30  31
ATOM     31  C   UNL     1       7.934 -13.627   1.522  0.00  0.00    +0.000 C 
ATOM     32  H   UNL     1       8.620 -13.357   2.328  0.00  0.00    +0.000 HD
ATOM     33  H   UNL     1       8.484 -13.838   0.602  0.00  0.00    +0.000 HD
ATOM     34  H   UNL     1       7.388 -14.528   1.817  0.00  0.00    +0.000 HD
ENDBRANCH  30  31
ENDBRANCH  28  30
ENDBRANCH  25  28
ENDBRANCH  19  25
ENDBRANCH   1  18
TORSDOF 10
ENDMDL
MODEL 5
REMARK VINA RESULT:    -4.878      2.693      4.382
REMARK INTER + INTRA:          -7.458
REMARK INTER:                  -6.908
REMARK INTRA:                  -0.550
REMARK UNBOUND:                -0.300
REMARK  Name = 1549026
REMARK  10 active torsions:
REMARK  status: ('A' for Active; 'I' for Inactive)
REMARK    1  A    between atoms: O_1  and  C_10
REMARK    2  A    between atoms: O_1  and  C_13
REMARK    3  A    between atoms: C_3  and  C_4
REMARK    4  A    between atoms: C_3  and  C_5
REMARK    5  A    between atoms: C_4  and  C_6
REMARK    6  A    between atoms: C_5  and  C_8
REMARK    7  A    between atoms: C_7  and  C_10
REMARK    8  A    between atoms: C_9  and  C_11
REMARK    9  A    between atoms: C_9  and  C_12
REMARK   10  A    between atoms: C_13  and  C_14
REMARK                            x       y       z     vdW  Elec       q    Type
REMARK                         _______ _______ _______ _____ _____    ______ ____
ROOT
ATOM      1  C   UNL     1      10.563 -11.541  -2.830  0.00  0.00    +0.000 C 
ATOM      2  H   UNL     1      10.245 -11.473  -3.878  0.00  0.00    +0.000 HD
ATOM      3  H   UNL     1      11.352 -12.303  -2.801  0.00  0.00    +0.000 HD
ENDROOT
BRANCH   1   4
ATOM      4  C   UNL     1      11.153 -10.192  -2.396  0.00  0.00    +0.000 C 
ATOM      5  H   UNL     1      11.055 -10.076  -1.315  0.00  0.00    +0.000 HD
ATOM      6  H   UNL     1      10.538  -9.395  -2.835  0.00  0.00    +0.000 HD
BRANCH   4   7
ATOM      7  C   UNL     1      12.563  -9.995  -2.880  0.00  0.00    +0.000 C 
ATOM      8  C   UNL     1      12.974  -9.522  -4.072  0.00  0.00    +0.000 C 
ATOM      9  H   UNL     1      13.326 -10.300  -2.165  0.00  0.00    +0.000 HD
BRANCH   8  10
ATOM     10  C   UNL     1      14.444  -9.404  -4.377  0.00  0.00    +0.000 C 
ATOM     11  H   UNL     1      14.707 -10.044  -5.225  0.00  0.00    +0.000 HD
ATOM     12  H   UNL     1      14.738  -8.380  -4.630  0.00  0.00    +0.000 HD
ATOM     13  H   UNL     1      15.036  -9.715  -3.510  0.00  0.00    +0.000 HD
ENDBRANCH   8  10
BRANCH   8  14
ATOM     14  C   UNL     1      12.073  -9.063  -5.183  0.00  0.00    +0.000 C 
ATOM     15  H   UNL     1      12.602  -8.348  -5.822  0.00  0.00    +0.000 HD
ATOM     16  H   UNL     1      11.720  -9.867  -5.830  0.00  0.00    +0.000 HD
ATOM     17  H   UNL     1      11.192  -8.562  -4.767  0.00  0.00    +0.000 HD
ENDBRANCH   8  14
ENDBRANCH   4   7
ENDBRANCH   1   4
BRANCH   1  18
ATOM     18  C   UNL     1       9.384 -11.988  -1.990  0.00  0.00    +0.000 C 
ATOM     19  C   UNL     1       8.848 -11.280  -0.978  0.00  0.00    +0.000 C 
ATOM     20  H   UNL     1       9.275 -10.300  -0.768  0.00  0.00    +0.000 HD
BRANCH  18  21
ATOM     21  C   UNL     1       8.829 -13.346  -2.337  0.00  0.00    +0.000 C 
ATOM     22  H   UNL     1       7.839 -13.237  -2.792  0.00  0.00    +0.000 HD
ATOM     23  H   UNL     1       8.724 -13.960  -1.438  0.00  0.00    +0.000 HD
ATOM     24  H   UNL     1       9.437 -13.928  -3.031  0.00  0.00    +0.000 HD
ENDBRANCH  18  21
BRANCH  19  25
ATOM     25  C   UNL     1       7.710 -11.666  -0.086  0.00  0.00    +0.000 C 
ATOM     26  H   UNL     1       7.824 -11.134   0.867  0.00  0.00    +0.000 HD
ATOM     27  H   UNL     1       7.694 -12.735   0.144  0.00  0.00    +0.000 HD
BRANCH  25  28
ATOM     28  O   UNL     1       6.494 -11.264  -0.703  0.00  0.00    +0.000 OA
BRANCH  28  30
ATOM     29  O   UNL     1       4.263 -11.861  -0.770  0.00  0.00    +0.000 OA
ATOM     30  C   UNL     1       5.440 -12.123  -0.557  0.00  0.00    +0.000 C 
BRANCH  30  31
ATOM     31  C   UNL     1       5.931 -13.459  -0.090  0.00  0.00    +0.000 C 
ATOM     32  H   UNL     1       5.535 -13.673   0.905  0.00  0.00    +0.000 HD
ATOM     33  H   UNL     1       7.023 -13.469  -0.081  0.00  0.00    +0.000 HD
ATOM     34  H   UNL     1       5.581 -14.235  -0.777  0.00  0.00    +0.000 HD
ENDBRANCH  30  31
ENDBRANCH  28  30
ENDBRANCH  25  28
ENDBRANCH  19  25
ENDBRANCH   1  18
TORSDOF 10
ENDMDL
MODEL 6
REMARK VINA RESULT:    -4.855     13.873     15.769
REMARK INTER + INTRA:          -7.425
REMARK INTER:                  -6.504
REMARK INTRA:                  -0.921
REMARK UNBOUND:                -0.300
REMARK  Name = 1549026
REMARK  10 active torsions:
REMARK  status: ('A' for Active; 'I' for Inactive)
REMARK    1  A    between atoms: O_1  and  C_10
REMARK    2  A    between atoms: O_1  and  C_13
REMARK    3  A    between atoms: C_3  and  C_4
REMARK    4  A    between atoms: C_3  and  C_5
REMARK    5  A    between atoms: C_4  and  C_6
REMARK    6  A    between atoms: C_5  and  C_8
REMARK    7  A    between atoms: C_7  and  C_10
REMARK    8  A    between atoms: C_9  and  C_11
REMARK    9  A    between atoms: C_9  and  C_12
REMARK   10  A    between atoms: C_13  and  C_14
REMARK                            x       y       z     vdW  Elec       q    Type
REMARK                         _______ _______ _______ _____ _____    ______ ____
ROOT
ATOM      1  C   UNL     1      -3.504  -6.715 -10.145  0.00  0.00    +0.000 C 
ATOM      2  H   UNL     1      -3.021  -5.774  -9.854  0.00  0.00    +0.000 HD
ATOM      3  H   UNL     1      -3.293  -6.845 -11.215  0.00  0.00    +0.000 HD
ENDROOT
BRANCH   1   4
ATOM      4  C   UNL     1      -2.863  -7.870  -9.364  0.00  0.00    +0.000 C 
ATOM      5  H   UNL     1      -2.904  -7.659  -8.293  0.00  0.00    +0.000 HD
ATOM      6  H   UNL     1      -1.796  -7.901  -9.618  0.00  0.00    +0.000 HD
BRANCH   4   7
ATOM      7  C   UNL     1      -3.453  -9.207  -9.720  0.00  0.00    +0.000 C 
ATOM      8  C   UNL     1      -4.025 -10.107  -8.899  0.00  0.00    +0.000 C 
ATOM      9  H   UNL     1      -3.376  -9.460 -10.777  0.00  0.00    +0.000 HD
BRANCH   8  10
ATOM     10  C   UNL     1      -4.557 -11.406  -9.447  0.00  0.00    +0.000 C 
ATOM     11  H   UNL     1      -4.251 -11.528 -10.492  0.00  0.00    +0.000 HD
ATOM     12  H   UNL     1      -4.193 -12.276  -8.891  0.00  0.00    +0.000 HD
ATOM     13  H   UNL     1      -5.651 -11.416  -9.402  0.00  0.00    +0.000 HD
ENDBRANCH   8  10
BRANCH   8  14
ATOM     14  C   UNL     1      -4.212  -9.939  -7.418  0.00  0.00    +0.000 C 
ATOM     15  H   UNL     1      -3.915 -10.855  -6.897  0.00  0.00    +0.000 HD
ATOM     16  H   UNL     1      -3.629  -9.124  -6.987  0.00  0.00    +0.000 HD
ATOM     17  H   UNL     1      -5.267  -9.745  -7.194  0.00  0.00    +0.000 HD
ENDBRANCH   8  14
ENDBRANCH   4   7
ENDBRANCH   1   4
BRANCH   1  18
ATOM     18  C   UNL     1      -4.997  -6.585  -9.927  0.00  0.00    +0.000 C 
ATOM     19  C   UNL     1      -5.577  -6.243  -8.761  0.00  0.00    +0.000 C 
ATOM     20  H   UNL     1      -4.921  -6.011  -7.922  0.00  0.00    +0.000 HD
BRANCH  18  21
ATOM     21  C   UNL     1      -5.851  -6.906 -11.127  0.00  0.00    +0.000 C 
ATOM     22  H   UNL     1      -6.525  -7.736 -10.891  0.00  0.00    +0.000 HD
ATOM     23  H   UNL     1      -5.228  -7.206 -11.974  0.00  0.00    +0.000 HD
ATOM     24  H   UNL     1      -6.470  -6.083 -11.485  0.00  0.00    +0.000 HD
ENDBRANCH  18  21
BRANCH  19  25
ATOM     25  C   UNL     1      -7.038  -6.125  -8.459  0.00  0.00    +0.000 C 
ATOM     26  H   UNL     1      -7.563  -6.935  -8.982  0.00  0.00    +0.000 HD
ATOM     27  H   UNL     1      -7.470  -5.184  -8.809  0.00  0.00    +0.000 HD
BRANCH  25  28
ATOM     28  O   UNL     1      -7.224  -6.277  -7.058  0.00  0.00    +0.000 OA
BRANCH  28  30
ATOM     29  O   UNL     1      -6.479  -7.884  -5.575  0.00  0.00    +0.000 OA
ATOM     30  C   UNL     1      -7.101  -7.551  -6.575  0.00  0.00    +0.000 C 
BRANCH  30  31
ATOM     31  C   UNL     1      -7.847  -8.505  -7.457  0.00  0.00    +0.000 C 
ATOM     32  H   UNL     1      -8.422  -9.204  -6.845  0.00  0.00    +0.000 HD
ATOM     33  H   UNL     1      -7.144  -9.042  -8.098  0.00  0.00    +0.000 HD
ATOM     34  H   UNL     1      -8.541  -7.946  -8.092  0.00  0.00    +0.000 HD
ENDBRANCH  30  31
ENDBRANCH  28  30
ENDBRANCH  25  28
ENDBRANCH  19  25
ENDBRANCH   1  18
TORSDOF 10
ENDMDL
MODEL 7
REMARK VINA RESULT:    -4.830     24.219     25.612
REMARK INTER + INTRA:          -7.389
REMARK INTER:                  -7.011
REMARK INTRA:                  -0.378
REMARK UNBOUND:                -0.300
REMARK  Name = 1549026
REMARK  10 active torsions:
REMARK  status: ('A' for Active; 'I' for Inactive)
REMARK    1  A    between atoms: O_1  and  C_10
REMARK    2  A    between atoms: O_1  and  C_13
REMARK    3  A    between atoms: C_3  and  C_4
REMARK    4  A    between atoms: C_3  and  C_5
REMARK    5  A    between atoms: C_4  and  C_6
REMARK    6  A    between atoms: C_5  and  C_8
REMARK    7  A    between atoms: C_7  and  C_10
REMARK    8  A    between atoms: C_9  and  C_11
REMARK    9  A    between atoms: C_9  and  C_12
REMARK   10  A    between atoms: C_13  and  C_14
REMARK                            x       y       z     vdW  Elec       q    Type
REMARK                         _______ _______ _______ _____ _____    ______ ____
ROOT
ATOM      1  C   UNL     1       7.143  12.754   0.032  0.00  0.00    +0.000 C 
ATOM      2  H   UNL     1       6.994  13.728   0.516  0.00  0.00    +0.000 HD
ATOM      3  H   UNL     1       8.092  12.364   0.423  0.00  0.00    +0.000 HD
ENDROOT
BRANCH   1   4
ATOM      4  C   UNL     1       6.005  11.811   0.445  0.00  0.00    +0.000 C 
ATOM      5  H   UNL     1       6.211  10.802   0.080  0.00  0.00    +0.000 HD
ATOM      6  H   UNL     1       5.093  12.131  -0.074  0.00  0.00    +0.000 HD
BRANCH   4   7
ATOM      7  C   UNL     1       5.726  11.853   1.922  0.00  0.00    +0.000 C 
ATOM      8  C   UNL     1       4.651  12.366   2.550  0.00  0.00    +0.000 C 
ATOM      9  H   UNL     1       6.517  11.426   2.537  0.00  0.00    +0.000 HD
BRANCH   8  10
ATOM     10  C   UNL     1       4.555  12.319   4.052  0.00  0.00    +0.000 C 
ATOM     11  H   UNL     1       4.271  13.302   4.444  0.00  0.00    +0.000 HD
ATOM     12  H   UNL     1       3.811  11.595   4.402  0.00  0.00    +0.000 HD
ATOM     13  H   UNL     1       5.521  12.038   4.485  0.00  0.00    +0.000 HD
ENDBRANCH   8  10
BRANCH   8  14
ATOM     14  C   UNL     1       3.469  13.000   1.874  0.00  0.00    +0.000 C 
ATOM     15  H   UNL     1       3.613  14.084   1.809  0.00  0.00    +0.000 HD
ATOM     16  H   UNL     1       3.294  12.641   0.859  0.00  0.00    +0.000 HD
ATOM     17  H   UNL     1       2.560  12.809   2.454  0.00  0.00    +0.000 HD
ENDBRANCH   8  14
ENDBRANCH   4   7
ENDBRANCH   1   4
BRANCH   1  18
ATOM     18  C   UNL     1       7.248  12.963  -1.464  0.00  0.00    +0.000 C 
ATOM     19  C   UNL     1       8.233  12.474  -2.242  0.00  0.00    +0.000 C 
ATOM     20  H   UNL     1       8.992  11.856  -1.763  0.00  0.00    +0.000 HD
BRANCH  18  21
ATOM     21  C   UNL     1       6.163  13.816  -2.070  0.00  0.00    +0.000 C 
ATOM     22  H   UNL     1       5.189  13.338  -1.918  0.00  0.00    +0.000 HD
ATOM     23  H   UNL     1       6.319  13.932  -3.146  0.00  0.00    +0.000 HD
ATOM     24  H   UNL     1       6.090  14.825  -1.665  0.00  0.00    +0.000 HD
ENDBRANCH  18  21
BRANCH  19  25
ATOM     25  C   UNL     1       8.423  12.663  -3.714  0.00  0.00    +0.000 C 
ATOM     26  H   UNL     1       8.458  13.740  -3.920  0.00  0.00    +0.000 HD
ATOM     27  H   UNL     1       7.601  12.250  -4.305  0.00  0.00    +0.000 HD
BRANCH  25  28
ATOM     28  O   UNL     1       9.661  12.075  -4.090  0.00  0.00    +0.000 OA
BRANCH  28  30
ATOM     29  O   UNL     1      10.415  12.536  -6.225  0.00  0.00    +0.000 OA
ATOM     30  C   UNL     1      10.388  12.763  -5.022  0.00  0.00    +0.000 C 
BRANCH  30  31
ATOM     31  C   UNL     1      11.166  13.857  -4.357  0.00  0.00    +0.000 C 
ATOM     32  H   UNL     1      10.496  14.675  -4.082  0.00  0.00    +0.000 HD
ATOM     33  H   UNL     1      11.952  14.212  -5.027  0.00  0.00    +0.000 HD
ATOM     34  H   UNL     1      11.633  13.469  -3.447  0.00  0.00    +0.000 HD
ENDBRANCH  30  31
ENDBRANCH  28  30
ENDBRANCH  25  28
ENDBRANCH  19  25
ENDBRANCH   1  18
TORSDOF 10
ENDMDL
MODEL 8
REMARK VINA RESULT:    -4.816     13.725     15.150
REMARK INTER + INTRA:          -7.369
REMARK INTER:                  -6.591
REMARK INTRA:                  -0.777
REMARK UNBOUND:                -0.300
REMARK  Name = 1549026
REMARK  10 active torsions:
REMARK  status: ('A' for Active; 'I' for Inactive)
REMARK    1  A    between atoms: O_1  and  C_10
REMARK    2  A    between atoms: O_1  and  C_13
REMARK    3  A    between atoms: C_3  and  C_4
REMARK    4  A    between atoms: C_3  and  C_5
REMARK    5  A    between atoms: C_4  and  C_6
REMARK    6  A    between atoms: C_5  and  C_8
REMARK    7  A    between atoms: C_7  and  C_10
REMARK    8  A    between atoms: C_9  and  C_11
REMARK    9  A    between atoms: C_9  and  C_12
REMARK   10  A    between atoms: C_13  and  C_14
REMARK                            x       y       z     vdW  Elec       q    Type
REMARK                         _______ _______ _______ _____ _____    ______ ____
ROOT
ATOM      1  C   UNL     1      -2.770  -8.091  -9.651  0.00  0.00    +0.000 C 
ATOM      2  H   UNL     1      -2.574  -8.297 -10.711  0.00  0.00    +0.000 HD
ATOM      3  H   UNL     1      -1.787  -8.036  -9.166  0.00  0.00    +0.000 HD
ENDROOT
BRANCH   1   4
ATOM      4  C   UNL     1      -3.467  -6.729  -9.526  0.00  0.00    +0.000 C 
ATOM      5  H   UNL     1      -2.805  -5.941  -9.895  0.00  0.00    +0.000 HD
ATOM      6  H   UNL     1      -3.610  -6.517  -8.459  0.00  0.00    +0.000 HD
BRANCH   4   7
ATOM      7  C   UNL     1      -4.821  -6.709 -10.180  0.00  0.00    +0.000 C 
ATOM      8  C   UNL     1      -6.009  -6.413  -9.619  0.00  0.00    +0.000 C 
ATOM      9  H   UNL     1      -4.812  -6.993 -11.231  0.00  0.00    +0.000 HD
BRANCH   8  10
ATOM     10  C   UNL     1      -7.269  -6.455 -10.444  0.00  0.00    +0.000 C 
ATOM     11  H   UNL     1      -7.781  -5.488 -10.402  0.00  0.00    +0.000 HD
ATOM     12  H   UNL     1      -7.073  -6.682 -11.497  0.00  0.00    +0.000 HD
ATOM     13  H   UNL     1      -7.947  -7.225 -10.059  0.00  0.00    +0.000 HD
ENDBRANCH   8  10
BRANCH   8  14
ATOM     14  C   UNL     1      -6.219  -6.010  -8.188  0.00  0.00    +0.000 C 
ATOM     15  H   UNL     1      -7.129  -6.478  -7.797  0.00  0.00    +0.000 HD
ATOM     16  H   UNL     1      -5.403  -6.294  -7.522  0.00  0.00    +0.000 HD
ATOM     17  H   UNL     1      -6.338  -4.923  -8.119  0.00  0.00    +0.000 HD
ENDBRANCH   8  14
ENDBRANCH   4   7
ENDBRANCH   1   4
BRANCH   1  18
ATOM     18  C   UNL     1      -3.569  -9.239  -9.070  0.00  0.00    +0.000 C 
ATOM     19  C   UNL     1      -3.918  -9.356  -7.775  0.00  0.00    +0.000 C 
ATOM     20  H   UNL     1      -3.632  -8.548  -7.103  0.00  0.00    +0.000 HD
BRANCH  18  21
ATOM     21  C   UNL     1      -3.946 -10.318 -10.053  0.00  0.00    +0.000 C 
ATOM     22  H   UNL     1      -4.580  -9.897 -10.841  0.00  0.00    +0.000 HD
ATOM     23  H   UNL     1      -4.509 -11.113  -9.555  0.00  0.00    +0.000 HD
ATOM     24  H   UNL     1      -3.106 -10.807 -10.546  0.00  0.00    +0.000 HD
ENDBRANCH  18  21
BRANCH  19  25
ATOM     25  C   UNL     1      -4.674 -10.470  -7.122  0.00  0.00    +0.000 C 
ATOM     26  H   UNL     1      -3.964 -11.270  -6.879  0.00  0.00    +0.000 HD
ATOM     27  H   UNL     1      -5.437 -10.905  -7.774  0.00  0.00    +0.000 HD
BRANCH  25  28
ATOM     28  O   UNL     1      -5.255  -9.980  -5.921  0.00  0.00    +0.000 OA
BRANCH  28  30
ATOM     29  O   UNL     1      -6.867 -10.638  -4.402  0.00  0.00    +0.000 OA
ATOM     30  C   UNL     1      -6.429 -10.573  -5.543  0.00  0.00    +0.000 C 
BRANCH  30  31
ATOM     31  C   UNL     1      -7.121 -11.145  -6.742  0.00  0.00    +0.000 C 
ATOM     32  H   UNL     1      -6.402 -11.683  -7.364  0.00  0.00    +0.000 HD
ATOM     33  H   UNL     1      -7.598 -10.344  -7.310  0.00  0.00    +0.000 HD
ATOM     34  H   UNL     1      -7.892 -11.848  -6.415  0.00  0.00    +0.000 HD
ENDBRANCH  30  31
ENDBRANCH  28  30
ENDBRANCH  25  28
ENDBRANCH  19  25
ENDBRANCH   1  18
TORSDOF 10
ENDMDL
MODEL 9
REMARK VINA RESULT:    -4.608     24.824     26.451
REMARK INTER + INTRA:          -7.063
REMARK INTER:                  -6.522
REMARK INTRA:                  -0.542
REMARK UNBOUND:                -0.300
REMARK  Name = 1549026
REMARK  10 active torsions:
REMARK  status: ('A' for Active; 'I' for Inactive)
REMARK    1  A    between atoms: O_1  and  C_10
REMARK    2  A    between atoms: O_1  and  C_13
REMARK    3  A    between atoms: C_3  and  C_4
REMARK    4  A    between atoms: C_3  and  C_5
REMARK    5  A    between atoms: C_4  and  C_6
REMARK    6  A    between atoms: C_5  and  C_8
REMARK    7  A    between atoms: C_7  and  C_10
REMARK    8  A    between atoms: C_9  and  C_11
REMARK    9  A    between atoms: C_9  and  C_12
REMARK   10  A    between atoms: C_13  and  C_14
REMARK                            x       y       z     vdW  Elec       q    Type
REMARK                         _______ _______ _______ _____ _____    ______ ____
ROOT
ATOM      1  C   UNL     1       0.658  11.603  11.546  0.00  0.00    +0.000 C 
ATOM      2  H   UNL     1       1.028  12.146  12.424  0.00  0.00    +0.000 HD
ATOM      3  H   UNL     1       1.024  12.156  10.671  0.00  0.00    +0.000 HD
ENDROOT
BRANCH   1   4
ATOM      4  C   UNL     1       1.266  10.193  11.536  0.00  0.00    +0.000 C 
ATOM      5  H   UNL     1       1.802  10.029  10.599  0.00  0.00    +0.000 HD
ATOM      6  H   UNL     1       0.442   9.468  11.534  0.00  0.00    +0.000 HD
BRANCH   4   7
ATOM      7  C   UNL     1       2.110   9.918  12.750  0.00  0.00    +0.000 C 
ATOM      8  C   UNL     1       3.445   9.759  12.814  0.00  0.00    +0.000 C 
ATOM      9  H   UNL     1       1.541   9.821  13.674  0.00  0.00    +0.000 HD
BRANCH   8  10
ATOM     10  C   UNL     1       4.114   9.481  14.135  0.00  0.00    +0.000 C 
ATOM     11  H   UNL     1       5.124   9.904  14.144  0.00  0.00    +0.000 HD
ATOM     12  H   UNL     1       3.567   9.910  14.980  0.00  0.00    +0.000 HD
ATOM     13  H   UNL     1       4.188   8.401  14.301  0.00  0.00    +0.000 HD
ENDBRANCH   8  10
BRANCH   8  14
ATOM     14  C   UNL     1       4.389   9.850  11.650  0.00  0.00    +0.000 C 
ATOM     15  H   UNL     1       3.826  10.009  10.723  0.00  0.00    +0.000 HD
ATOM     16  H   UNL     1       5.112  10.664  11.726  0.00  0.00    +0.000 HD
ATOM     17  H   UNL     1       4.952   8.916  11.551  0.00  0.00    +0.000 HD
ENDBRANCH   8  14
ENDBRANCH   4   7
ENDBRANCH   1   4
BRANCH   1  18
ATOM     18  C   UNL     1      -0.856  11.614  11.567  0.00  0.00    +0.000 C 
ATOM     19  C   UNL     1      -1.635  10.520  11.466  0.00  0.00    +0.000 C 
ATOM     20  H   UNL     1      -1.137   9.554  11.397  0.00  0.00    +0.000 HD
BRANCH  18  21
ATOM     21  C   UNL     1      -1.485  12.980  11.678  0.00  0.00    +0.000 C 
ATOM     22  H   UNL     1      -1.621  13.240  12.733  0.00  0.00    +0.000 HD
ATOM     23  H   UNL     1      -2.467  12.992  11.197  0.00  0.00    +0.000 HD
ATOM     24  H   UNL     1      -0.914  13.788  11.221  0.00  0.00    +0.000 HD
ENDBRANCH  18  21
BRANCH  19  25
ATOM     25  C   UNL     1      -3.130  10.453  11.447  0.00  0.00    +0.000 C 
ATOM     26  H   UNL     1      -3.439   9.972  10.510  0.00  0.00    +0.000 HD
ATOM     27  H   UNL     1      -3.600  11.440  11.470  0.00  0.00    +0.000 HD
BRANCH  25  28
ATOM     28  O   UNL     1      -3.562   9.661  12.544  0.00  0.00    +0.000 OA
BRANCH  28  30
ATOM     29  O   UNL     1      -4.966  11.048  13.745  0.00  0.00    +0.000 OA
ATOM     30  C   UNL     1      -3.964  10.350  13.655  0.00  0.00    +0.000 C 
BRANCH  30  31
ATOM     31  C   UNL     1      -2.990  10.131  14.772  0.00  0.00    +0.000 C 
ATOM     32  H   UNL     1      -3.056   9.099  15.124  0.00  0.00    +0.000 HD
ATOM     33  H   UNL     1      -3.197  10.830  15.585  0.00  0.00    +0.000 HD
ATOM     34  H   UNL     1      -1.974  10.310  14.408  0.00  0.00    +0.000 HD
ENDBRANCH  30  31
ENDBRANCH  28  30
ENDBRANCH  25  28
ENDBRANCH  19  25
ENDBRANCH   1  18
TORSDOF 10
ENDMDL
MODEL 10
REMARK VINA RESULT:    -4.588     23.428     24.943
REMARK INTER + INTRA:          -7.033
REMARK INTER:                  -6.734
REMARK INTRA:                  -0.300
REMARK UNBOUND:                -0.300
REMARK  Name = 1549026
REMARK  10 active torsions:
REMARK  status: ('A' for Active; 'I' for Inactive)
REMARK    1  A    between atoms: O_1  and  C_10
REMARK    2  A    between atoms: O_1  and  C_13
REMARK    3  A    between atoms: C_3  and  C_4
REMARK    4  A    between atoms: C_3  and  C_5
REMARK    5  A    between atoms: C_4  and  C_6
REMARK    6  A    between atoms: C_5  and  C_8
REMARK    7  A    between atoms: C_7  and  C_10
REMARK    8  A    between atoms: C_9  and  C_11
REMARK    9  A    between atoms: C_9  and  C_12
REMARK   10  A    between atoms: C_13  and  C_14
REMARK                            x       y       z     vdW  Elec       q    Type
REMARK                         _______ _______ _______ _____ _____    ______ ____
ROOT
ATOM      1  C   UNL     1       3.167  10.817  11.092  0.00  0.00    +0.000 C 
ATOM      2  H   UNL     1       3.404  11.879  11.233  0.00  0.00    +0.000 HD
ATOM      3  H   UNL     1       2.971  10.691  10.019  0.00  0.00    +0.000 HD
ENDROOT
BRANCH   1   4
ATOM      4  C   UNL     1       4.390   9.975  11.480  0.00  0.00    +0.000 C 
ATOM      5  H   UNL     1       4.062   9.031  11.921  0.00  0.00    +0.000 HD
ATOM      6  H   UNL     1       4.926  10.502  12.279  0.00  0.00    +0.000 HD
BRANCH   4   7
ATOM      7  C   UNL     1       5.349   9.785  10.337  0.00  0.00    +0.000 C 
ATOM      8  C   UNL     1       6.605   9.302  10.379  0.00  0.00    +0.000 C 
ATOM      9  H   UNL     1       4.959  10.106   9.372  0.00  0.00    +0.000 HD
BRANCH   8  10
ATOM     10  C   UNL     1       7.419   9.194   9.116  0.00  0.00    +0.000 C 
ATOM     11  H   UNL     1       6.905   9.699   8.291  0.00  0.00    +0.000 HD
ATOM     12  H   UNL     1       8.410   9.648   9.217  0.00  0.00    +0.000 HD
ATOM     13  H   UNL     1       7.562   8.143   8.847  0.00  0.00    +0.000 HD
ENDBRANCH   8  10
BRANCH   8  14
ATOM     14  C   UNL     1       7.311   8.821  11.613  0.00  0.00    +0.000 C 
ATOM     15  H   UNL     1       7.897   9.637  12.051  0.00  0.00    +0.000 HD
ATOM     16  H   UNL     1       6.642   8.455  12.394  0.00  0.00    +0.000 HD
ATOM     17  H   UNL     1       7.998   8.006  11.358  0.00  0.00    +0.000 HD
ENDBRANCH   8  14
ENDBRANCH   4   7
ENDBRANCH   1   4
BRANCH   1  18
ATOM     18  C   UNL     1       1.921  10.485  11.885  0.00  0.00    +0.000 C 
ATOM     19  C   UNL     1       0.665  10.801  11.515  0.00  0.00    +0.000 C 
ATOM     20  H   UNL     1       0.536  11.305  10.558  0.00  0.00    +0.000 HD
BRANCH  18  21
ATOM     21  C   UNL     1       2.164   9.776  13.194  0.00  0.00    +0.000 C 
ATOM     22  H   UNL     1       1.274   9.852  13.827  0.00  0.00    +0.000 HD
ATOM     23  H   UNL     1       3.002  10.232  13.729  0.00  0.00    +0.000 HD
ATOM     24  H   UNL     1       2.404   8.716  13.105  0.00  0.00    +0.000 HD
ENDBRANCH  18  21
BRANCH  19  25
ATOM     25  C   UNL     1      -0.607  10.537  12.256  0.00  0.00    +0.000 C 
ATOM     26  H   UNL     1      -0.993  11.495  12.627  0.00  0.00    +0.000 HD
ATOM     27  H   UNL     1      -0.466   9.890  13.127  0.00  0.00    +0.000 HD
BRANCH  25  28
ATOM     28  O   UNL     1      -1.549   9.973  11.354  0.00  0.00    +0.000 OA
BRANCH  28  30
ATOM     29  O   UNL     1      -3.597   9.706  12.390  0.00  0.00    +0.000 OA
ATOM     30  C   UNL     1      -2.861  10.276  11.595  0.00  0.00    +0.000 C 
BRANCH  30  31
ATOM     31  C   UNL     1      -3.285  11.427  10.734  0.00  0.00    +0.000 C 
ATOM     32  H   UNL     1      -2.995  11.240   9.697  0.00  0.00    +0.000 HD
ATOM     33  H   UNL     1      -2.830  12.350  11.100  0.00  0.00    +0.000 HD
ATOM     34  H   UNL     1      -4.373  11.532  10.778  0.00  0.00    +0.000 HD
ENDBRANCH  30  31
ENDBRANCH  28  30
ENDBRANCH  25  28
ENDBRANCH  19  25
ENDBRANCH   1  18
TORSDOF 10
ENDMDL
