MODEL 1
REMARK VINA RESULT:    -4.745      0.000      0.000
REMARK INTER + INTRA:          -7.604
REMARK INTER:                  -6.802
REMARK INTRA:                  -0.802
REMARK UNBOUND:                -0.639
REMARK  Name = 102861
REMARK  9 active torsions:
REMARK  status: ('A' for Active; 'I' for Inactive)
REMARK    1  A    between atoms: O_2  and  C_13
REMARK    2  A    between atoms: O_2  and  C_16
REMARK    3  A    between atoms: C_4  and  C_10
REMARK    4  A    between atoms: C_5  and  C_7
REMARK    5  A    between atoms: C_7  and  C_11
REMARK    6  A    between atoms: C_10  and  C_13
REMARK    7  A    between atoms: C_11  and  C_12
REMARK    8  A    between atoms: C_12  and  C_14
REMARK    9  A    between atoms: C_14  and  C_15
REMARK                            x       y       z     vdW  Elec       q    Type
REMARK                         _______ _______ _______ _____ _____    ______ ____
ROOT
ATOM      1  O   UNL     1      -6.786  -6.803 -11.144  0.00  0.00    +0.000 OA
ATOM      2  C   UNL     1      -6.218  -6.958  -7.633  0.00  0.00    +0.000 C 
ATOM      3  C   UNL     1      -5.642  -7.184  -9.043  0.00  0.00    +0.000 C 
ATOM      4  C   UNL     1      -7.150  -5.752  -7.788  0.00  0.00    +0.000 C 
ATOM      5  C   UNL     1      -7.814  -5.924  -9.149  0.00  0.00    +0.000 C 
ATOM      6  C   UNL     1      -6.752  -6.655  -9.929  0.00  0.00    +0.000 C 
ATOM      7  H   UNL     1      -5.450  -6.718  -6.892  0.00  0.00    +0.000 HD
ATOM      8  H   UNL     1      -5.490  -8.243  -9.274  0.00  0.00    +0.000 HD
ATOM      9  H   UNL     1      -7.887  -5.671  -6.983  0.00  0.00    +0.000 HD
ATOM     10  H   UNL     1      -6.560  -4.827  -7.785  0.00  0.00    +0.000 HD
ATOM     11  H   UNL     1      -8.707  -6.551  -9.087  0.00  0.00    +0.000 HD
ATOM     12  H   UNL     1      -8.050  -4.963  -9.609  0.00  0.00    +0.000 HD
ENDROOT
BRANCH   3  13
ATOM     13  C   UNL     1      -4.365  -6.395  -9.292  0.00  0.00    +0.000 C 
ATOM     14  H   UNL     1      -4.008  -5.927  -8.364  0.00  0.00    +0.000 HD
ATOM     15  H   UNL     1      -4.575  -5.570  -9.984  0.00  0.00    +0.000 HD
BRANCH  13  16
ATOM     16  C   UNL     1      -3.264  -7.277  -9.882  0.00  0.00    +0.000 C 
ATOM     17  H   UNL     1      -2.287  -6.808  -9.711  0.00  0.00    +0.000 HD
ATOM     18  H   UNL     1      -3.383  -7.385 -10.964  0.00  0.00    +0.000 HD
BRANCH  16  19
ATOM     19  C   UNL     1      -3.270  -8.674  -9.258  0.00  0.00    +0.000 C 
ATOM     20  H   UNL     1      -2.278  -8.900  -8.849  0.00  0.00    +0.000 HD
ATOM     21  H   UNL     1      -3.978  -8.697  -8.420  0.00  0.00    +0.000 HD
BRANCH  19  22
ATOM     22  C   UNL     1      -3.659  -9.739 -10.282  0.00  0.00    +0.000 C 
ATOM     23  H   UNL     1      -4.680 -10.089 -10.086  0.00  0.00    +0.000 HD
ATOM     24  H   UNL     1      -2.996 -10.606 -10.190  0.00  0.00    +0.000 HD
BRANCH  22  25
ATOM     25  C   UNL     1      -3.580  -9.201 -11.703  0.00  0.00    +0.000 C 
ATOM     26  H   UNL     1      -3.640  -8.109 -11.712  0.00  0.00    +0.000 HD
ATOM     27  H   UNL     1      -4.407  -9.593 -12.302  0.00  0.00    +0.000 HD
ATOM     28  H   UNL     1      -2.641  -9.499 -12.182  0.00  0.00    +0.000 HD
ENDBRANCH  22  25
ENDBRANCH  19  22
ENDBRANCH  16  19
ENDBRANCH  13  16
ENDBRANCH   3  13
BRANCH   2  29
ATOM     29  C   UNL     1      -6.976  -8.190  -7.131  0.00  0.00    +0.000 C 
ATOM     30  H   UNL     1      -6.995  -8.965  -7.906  0.00  0.00    +0.000 HD
ATOM     31  H   UNL     1      -8.013  -7.931  -6.892  0.00  0.00    +0.000 HD
BRANCH  29  33
ATOM     32  O   UNL     1      -6.855  -8.764  -4.771  0.00  0.00    +0.000 OA
ATOM     33  C   UNL     1      -6.350  -8.770  -5.885  0.00  0.00    +0.000 C 
BRANCH  33  34
ATOM     34  O   UNL     1      -5.133  -9.299  -6.210  0.00  0.00    +0.000 OA
BRANCH  34  35
ATOM     35  C   UNL     1      -5.158 -10.639  -6.711  0.00  0.00    +0.000 C 
ATOM     36  H   UNL     1      -4.791 -11.334  -5.950  0.00  0.00    +0.000 HD
ATOM     37  H   UNL     1      -6.170 -10.908  -7.026  0.00  0.00    +0.000 HD
ATOM     38  H   UNL     1      -4.495 -10.690  -7.581  0.00  0.00    +0.000 HD
ENDBRANCH  34  35
ENDBRANCH  33  34
ENDBRANCH  29  33
ENDBRANCH   2  29
TORSDOF 9
ENDMDL
MODEL 2
REMARK VINA RESULT:    -4.739     23.584     25.605
REMARK INTER + INTRA:          -7.594
REMARK INTER:                  -7.258
REMARK INTRA:                  -0.336
REMARK UNBOUND:                -0.639
REMARK  Name = 102861
REMARK  9 active torsions:
REMARK  status: ('A' for Active; 'I' for Inactive)
REMARK    1  A    between atoms: O_2  and  C_13
REMARK    2  A    between atoms: O_2  and  C_16
REMARK    3  A    between atoms: C_4  and  C_10
REMARK    4  A    between atoms: C_5  and  C_7
REMARK    5  A    between atoms: C_7  and  C_11
REMARK    6  A    between atoms: C_10  and  C_13
REMARK    7  A    between atoms: C_11  and  C_12
REMARK    8  A    between atoms: C_12  and  C_14
REMARK    9  A    between atoms: C_14  and  C_15
REMARK                            x       y       z     vdW  Elec       q    Type
REMARK                         _______ _______ _______ _____ _____    ______ ____
ROOT
ATOM      1  O   UNL     1       2.851  -5.762  17.696  0.00  0.00    +0.000 OA
ATOM      2  C   UNL     1       1.444  -4.906  14.539  0.00  0.00    +0.000 C 
ATOM      3  C   UNL     1       1.374  -5.820  15.776  0.00  0.00    +0.000 C 
ATOM      4  C   UNL     1       1.936  -3.561  15.085  0.00  0.00    +0.000 C 
ATOM      5  C   UNL     1       2.960  -3.908  16.159  0.00  0.00    +0.000 C 
ATOM      6  C   UNL     1       2.445  -5.228  16.670  0.00  0.00    +0.000 C 
ATOM      7  H   UNL     1       0.471  -4.758  14.063  0.00  0.00    +0.000 HD
ATOM      8  H   UNL     1       1.644  -6.857  15.552  0.00  0.00    +0.000 HD
ATOM      9  H   UNL     1       2.362  -2.914  14.311  0.00  0.00    +0.000 HD
ATOM     10  H   UNL     1       1.098  -3.018  15.540  0.00  0.00    +0.000 HD
ATOM     11  H   UNL     1       3.958  -4.053  15.736  0.00  0.00    +0.000 HD
ATOM     12  H   UNL     1       2.983  -3.160  16.953  0.00  0.00    +0.000 HD
ENDROOT
BRANCH   3  13
ATOM     13  C   UNL     1       0.026  -5.760  16.479  0.00  0.00    +0.000 C 
ATOM     14  H   UNL     1      -0.638  -5.037  15.987  0.00  0.00    +0.000 HD
ATOM     15  H   UNL     1       0.165  -5.393  17.504  0.00  0.00    +0.000 HD
BRANCH  13  16
ATOM     16  C   UNL     1      -0.648  -7.133  16.525  0.00  0.00    +0.000 C 
ATOM     17  H   UNL     1      -0.409  -7.688  15.609  0.00  0.00    +0.000 HD
ATOM     18  H   UNL     1      -1.736  -7.036  16.568  0.00  0.00    +0.000 HD
BRANCH  16  19
ATOM     19  C   UNL     1      -0.189  -7.941  17.740  0.00  0.00    +0.000 C 
ATOM     20  H   UNL     1       0.531  -7.354  18.323  0.00  0.00    +0.000 HD
ATOM     21  H   UNL     1      -1.049  -8.138  18.393  0.00  0.00    +0.000 HD
BRANCH  19  22
ATOM     22  C   UNL     1       0.446  -9.265  17.320  0.00  0.00    +0.000 C 
ATOM     23  H   UNL     1       1.400  -9.402  17.842  0.00  0.00    +0.000 HD
ATOM     24  H   UNL     1       0.662  -9.252  16.246  0.00  0.00    +0.000 HD
BRANCH  22  25
ATOM     25  C   UNL     1      -0.466 -10.443  17.629  0.00  0.00    +0.000 C 
ATOM     26  H   UNL     1      -1.436 -10.327  17.137  0.00  0.00    +0.000 HD
ATOM     27  H   UNL     1      -0.637 -10.517  18.707  0.00  0.00    +0.000 HD
ATOM     28  H   UNL     1      -0.018 -11.383  17.290  0.00  0.00    +0.000 HD
ENDBRANCH  22  25
ENDBRANCH  19  22
ENDBRANCH  16  19
ENDBRANCH  13  16
ENDBRANCH   3  13
BRANCH   2  29
ATOM     29  C   UNL     1       2.398  -5.464  13.480  0.00  0.00    +0.000 C 
ATOM     30  H   UNL     1       3.366  -4.952  13.535  0.00  0.00    +0.000 HD
ATOM     31  H   UNL     1       1.992  -5.302  12.475  0.00  0.00    +0.000 HD
BRANCH  29  33
ATOM     32  O   UNL     1       1.780  -7.815  13.491  0.00  0.00    +0.000 OA
ATOM     33  C   UNL     1       2.626  -6.946  13.649  0.00  0.00    +0.000 C 
BRANCH  33  34
ATOM     34  O   UNL     1       3.929  -7.153  14.005  0.00  0.00    +0.000 OA
BRANCH  34  35
ATOM     35  C   UNL     1       4.491  -8.401  13.587  0.00  0.00    +0.000 C 
ATOM     36  H   UNL     1       3.835  -9.227  13.876  0.00  0.00    +0.000 HD
ATOM     37  H   UNL     1       4.658  -8.399  12.506  0.00  0.00    +0.000 HD
ATOM     38  H   UNL     1       5.455  -8.526  14.090  0.00  0.00    +0.000 HD
ENDBRANCH  34  35
ENDBRANCH  33  34
ENDBRANCH  29  33
ENDBRANCH   2  29
TORSDOF 9
ENDMDL
MODEL 3
REMARK VINA RESULT:    -4.551     30.267     31.778
REMARK INTER + INTRA:          -7.318
REMARK INTER:                  -6.424
REMARK INTRA:                  -0.894
REMARK UNBOUND:                -0.639
REMARK  Name = 102861
REMARK  9 active torsions:
REMARK  status: ('A' for Active; 'I' for Inactive)
REMARK    1  A    between atoms: O_2  and  C_13
REMARK    2  A    between atoms: O_2  and  C_16
REMARK    3  A    between atoms: C_4  and  C_10
REMARK    4  A    between atoms: C_5  and  C_7
REMARK    5  A    between atoms: C_7  and  C_11
REMARK    6  A    between atoms: C_10  and  C_13
REMARK    7  A    between atoms: C_11  and  C_12
REMARK    8  A    between atoms: C_12  and  C_14
REMARK    9  A    between atoms: C_14  and  C_15
REMARK                            x       y       z     vdW  Elec       q    Type
REMARK                         _______ _______ _______ _____ _____    ______ ____
ROOT
ATOM      1  O   UNL     1      20.973  11.357   0.870  0.00  0.00    +0.000 OA
ATOM      2  C   UNL     1      19.718   8.099   0.176  0.00  0.00    +0.000 C 
ATOM      3  C   UNL     1      19.494   9.438   0.901  0.00  0.00    +0.000 C 
ATOM      4  C   UNL     1      20.448   8.480  -1.116  0.00  0.00    +0.000 C 
ATOM      5  C   UNL     1      21.401   9.604  -0.727  0.00  0.00    +0.000 C 
ATOM      6  C   UNL     1      20.661  10.268   0.405  0.00  0.00    +0.000 C 
ATOM      7  H   UNL     1      18.783   7.593  -0.083  0.00  0.00    +0.000 HD
ATOM      8  H   UNL     1      19.572   9.349   1.990  0.00  0.00    +0.000 HD
ATOM      9  H   UNL     1      20.977   7.639  -1.575  0.00  0.00    +0.000 HD
ATOM     10  H   UNL     1      19.725   8.852  -1.853  0.00  0.00    +0.000 HD
ATOM     11  H   UNL     1      22.353   9.217  -0.355  0.00  0.00    +0.000 HD
ATOM     12  H   UNL     1      21.565  10.299  -1.553  0.00  0.00    +0.000 HD
ENDROOT
BRANCH   3  13
ATOM     13  C   UNL     1      18.184  10.109   0.514  0.00  0.00    +0.000 C 
ATOM     14  H   UNL     1      18.242  10.517  -0.504  0.00  0.00    +0.000 HD
ATOM     15  H   UNL     1      18.005  10.967   1.174  0.00  0.00    +0.000 HD
BRANCH  13  16
ATOM     16  C   UNL     1      17.004   9.141   0.616  0.00  0.00    +0.000 C 
ATOM     17  H   UNL     1      17.377   8.128   0.806  0.00  0.00    +0.000 HD
ATOM     18  H   UNL     1      16.441   9.107  -0.321  0.00  0.00    +0.000 HD
BRANCH  16  19
ATOM     19  C   UNL     1      16.044   9.546   1.737  0.00  0.00    +0.000 C 
ATOM     20  H   UNL     1      15.991  10.640   1.800  0.00  0.00    +0.000 HD
ATOM     21  H   UNL     1      15.035   9.187   1.501  0.00  0.00    +0.000 HD
BRANCH  19  22
ATOM     22  C   UNL     1      16.488   8.973   3.082  0.00  0.00    +0.000 C 
ATOM     23  H   UNL     1      17.572   9.089   3.196  0.00  0.00    +0.000 HD
ATOM     24  H   UNL     1      16.269   7.900   3.122  0.00  0.00    +0.000 HD
BRANCH  22  25
ATOM     25  C   UNL     1      15.788   9.666   4.241  0.00  0.00    +0.000 C 
ATOM     26  H   UNL     1      14.972  10.301   3.883  0.00  0.00    +0.000 HD
ATOM     27  H   UNL     1      16.495  10.297   4.788  0.00  0.00    +0.000 HD
ATOM     28  H   UNL     1      15.372   8.934   4.941  0.00  0.00    +0.000 HD
ENDBRANCH  22  25
ENDBRANCH  19  22
ENDBRANCH  16  19
ENDBRANCH  13  16
ENDBRANCH   3  13
BRANCH   2  29
ATOM     29  C   UNL     1      20.547   7.131   1.024  0.00  0.00    +0.000 C 
ATOM     30  H   UNL     1      21.561   7.525   1.164  0.00  0.00    +0.000 HD
ATOM     31  H   UNL     1      20.632   6.160   0.524  0.00  0.00    +0.000 HD
BRANCH  29  33
ATOM     32  O   UNL     1      18.815   6.432   2.579  0.00  0.00    +0.000 OA
ATOM     33  C   UNL     1      19.929   6.895   2.380  0.00  0.00    +0.000 C 
BRANCH  33  34
ATOM     34  O   UNL     1      20.819   7.283   3.342  0.00  0.00    +0.000 OA
BRANCH  34  35
ATOM     35  C   UNL     1      22.171   7.442   2.903  0.00  0.00    +0.000 C 
ATOM     36  H   UNL     1      22.464   6.601   2.267  0.00  0.00    +0.000 HD
ATOM     37  H   UNL     1      22.287   8.390   2.368  0.00  0.00    +0.000 HD
ATOM     38  H   UNL     1      22.817   7.457   3.786  0.00  0.00    +0.000 HD
ENDBRANCH  34  35
ENDBRANCH  33  34
ENDBRANCH  29  33
ENDBRANCH   2  29
TORSDOF 9
ENDMDL
MODEL 4
REMARK VINA RESULT:    -4.528     14.865     16.849
REMARK INTER + INTRA:          -7.285
REMARK INTER:                  -6.456
REMARK INTRA:                  -0.829
REMARK UNBOUND:                -0.639
REMARK  Name = 102861
REMARK  9 active torsions:
REMARK  status: ('A' for Active; 'I' for Inactive)
REMARK    1  A    between atoms: O_2  and  C_13
REMARK    2  A    between atoms: O_2  and  C_16
REMARK    3  A    between atoms: C_4  and  C_10
REMARK    4  A    between atoms: C_5  and  C_7
REMARK    5  A    between atoms: C_7  and  C_11
REMARK    6  A    between atoms: C_10  and  C_13
REMARK    7  A    between atoms: C_11  and  C_12
REMARK    8  A    between atoms: C_12  and  C_14
REMARK    9  A    between atoms: C_14  and  C_15
REMARK                            x       y       z     vdW  Elec       q    Type
REMARK                         _______ _______ _______ _____ _____    ______ ____
ROOT
ATOM      1  O   UNL     1      12.214  -7.986 -10.612  0.00  0.00    +0.000 OA
ATOM      2  C   UNL     1       9.802  -9.019  -8.206  0.00  0.00    +0.000 C 
ATOM      3  C   UNL     1      11.225  -9.201  -8.764  0.00  0.00    +0.000 C 
ATOM      4  C   UNL     1       9.511  -7.524  -8.382  0.00  0.00    +0.000 C 
ATOM      5  C   UNL     1      10.144  -7.142  -9.714  0.00  0.00    +0.000 C 
ATOM      6  C   UNL     1      11.307  -8.096  -9.797  0.00  0.00    +0.000 C 
ATOM      7  H   UNL     1       9.726  -9.270  -7.144  0.00  0.00    +0.000 HD
ATOM      8  H   UNL     1      11.361 -10.161  -9.273  0.00  0.00    +0.000 HD
ATOM      9  H   UNL     1       8.442  -7.290  -8.357  0.00  0.00    +0.000 HD
ATOM     10  H   UNL     1       9.989  -6.957  -7.574  0.00  0.00    +0.000 HD
ATOM     11  H   UNL     1       9.467  -7.329 -10.552  0.00  0.00    +0.000 HD
ATOM     12  H   UNL     1      10.483  -6.104  -9.718  0.00  0.00    +0.000 HD
ENDROOT
BRANCH   3  13
ATOM     13  C   UNL     1      12.304  -9.000  -7.709  0.00  0.00    +0.000 C 
ATOM     14  H   UNL     1      12.474  -7.931  -7.525  0.00  0.00    +0.000 HD
ATOM     15  H   UNL     1      13.257  -9.397  -8.083  0.00  0.00    +0.000 HD
BRANCH  13  16
ATOM     16  C   UNL     1      11.947  -9.700  -6.397  0.00  0.00    +0.000 C 
ATOM     17  H   UNL     1      12.635 -10.539  -6.231  0.00  0.00    +0.000 HD
ATOM     18  H   UNL     1      10.936 -10.116  -6.435  0.00  0.00    +0.000 HD
BRANCH  16  19
ATOM     19  C   UNL     1      12.027  -8.739  -5.210  0.00  0.00    +0.000 C 
ATOM     20  H   UNL     1      12.922  -8.112  -5.302  0.00  0.00    +0.000 HD
ATOM     21  H   UNL     1      11.160  -8.067  -5.225  0.00  0.00    +0.000 HD
BRANCH  19  22
ATOM     22  C   UNL     1      12.063  -9.495  -3.883  0.00  0.00    +0.000 C 
ATOM     23  H   UNL     1      11.488 -10.425  -3.969  0.00  0.00    +0.000 HD
ATOM     24  H   UNL     1      11.592  -8.894  -3.097  0.00  0.00    +0.000 HD
BRANCH  22  25
ATOM     25  C   UNL     1      13.488  -9.826  -3.468  0.00  0.00    +0.000 C 
ATOM     26  H   UNL     1      14.052 -10.249  -4.306  0.00  0.00    +0.000 HD
ATOM     27  H   UNL     1      13.486 -10.558  -2.656  0.00  0.00    +0.000 HD
ATOM     28  H   UNL     1      14.011  -8.930  -3.118  0.00  0.00    +0.000 HD
ENDBRANCH  22  25
ENDBRANCH  19  22
ENDBRANCH  16  19
ENDBRANCH  13  16
ENDBRANCH   3  13
BRANCH   2  29
ATOM     29  C   UNL     1       8.786  -9.880  -8.960  0.00  0.00    +0.000 C 
ATOM     30  H   UNL     1       8.716  -9.555 -10.005  0.00  0.00    +0.000 HD
ATOM     31  H   UNL     1       7.792  -9.781  -8.511  0.00  0.00    +0.000 HD
BRANCH  29  33
ATOM     32  O   UNL     1       9.468 -12.012  -9.910  0.00  0.00    +0.000 OA
ATOM     33  C   UNL     1       9.157 -11.344  -8.934  0.00  0.00    +0.000 C 
BRANCH  33  34
ATOM     34  O   UNL     1       9.086 -11.792  -7.646  0.00  0.00    +0.000 OA
BRANCH  34  35
ATOM     35  C   UNL     1      10.054 -12.782  -7.284  0.00  0.00    +0.000 C 
ATOM     36  H   UNL     1       9.861 -13.715  -7.824  0.00  0.00    +0.000 HD
ATOM     37  H   UNL     1      11.065 -12.418  -7.491  0.00  0.00    +0.000 HD
ATOM     38  H   UNL     1       9.962 -12.973  -6.211  0.00  0.00    +0.000 HD
ENDBRANCH  34  35
ENDBRANCH  33  34
ENDBRANCH  29  33
ENDBRANCH   2  29
TORSDOF 9
ENDMDL
MODEL 5
REMARK VINA RESULT:    -4.509     24.272     25.946
REMARK INTER + INTRA:          -7.256
REMARK INTER:                  -6.210
REMARK INTRA:                  -1.047
REMARK UNBOUND:                -0.639
REMARK  Name = 102861
REMARK  9 active torsions:
REMARK  status: ('A' for Active; 'I' for Inactive)
REMARK    1  A    between atoms: O_2  and  C_13
REMARK    2  A    between atoms: O_2  and  C_16
REMARK    3  A    between atoms: C_4  and  C_10
REMARK    4  A    between atoms: C_5  and  C_7
REMARK    5  A    between atoms: C_7  and  C_11
REMARK    6  A    between atoms: C_10  and  C_13
REMARK    7  A    between atoms: C_11  and  C_12
REMARK    8  A    between atoms: C_12  and  C_14
REMARK    9  A    between atoms: C_14  and  C_15
REMARK                            x       y       z     vdW  Elec       q    Type
REMARK                         _______ _______ _______ _____ _____    ______ ____
ROOT
ATOM      1  O   UNL     1       0.972  -3.580  15.474  0.00  0.00    +0.000 OA
ATOM      2  C   UNL     1       2.138  -6.936  15.712  0.00  0.00    +0.000 C 
ATOM      3  C   UNL     1       1.291  -5.818  16.347  0.00  0.00    +0.000 C 
ATOM      4  C   UNL     1       1.989  -6.718  14.203  0.00  0.00    +0.000 C 
ATOM      5  C   UNL     1       1.980  -5.207  14.009  0.00  0.00    +0.000 C 
ATOM      6  C   UNL     1       1.365  -4.727  15.298  0.00  0.00    +0.000 C 
ATOM      7  H   UNL     1       1.777  -7.938  15.962  0.00  0.00    +0.000 HD
ATOM      8  H   UNL     1       1.725  -5.434  17.277  0.00  0.00    +0.000 HD
ATOM      9  H   UNL     1       2.781  -7.199  13.620  0.00  0.00    +0.000 HD
ATOM     10  H   UNL     1       1.033  -7.136  13.862  0.00  0.00    +0.000 HD
ATOM     11  H   UNL     1       2.993  -4.804  13.924  0.00  0.00    +0.000 HD
ATOM     12  H   UNL     1       1.375  -4.913  13.150  0.00  0.00    +0.000 HD
ENDROOT
BRANCH   3  13
ATOM     13  C   UNL     1      -0.159  -6.226  16.564  0.00  0.00    +0.000 C 
ATOM     14  H   UNL     1      -0.595  -6.620  15.637  0.00  0.00    +0.000 HD
ATOM     15  H   UNL     1      -0.752  -5.339  16.823  0.00  0.00    +0.000 HD
BRANCH  13  16
ATOM     16  C   UNL     1      -0.292  -7.262  17.681  0.00  0.00    +0.000 C 
ATOM     17  H   UNL     1      -1.084  -6.953  18.374  0.00  0.00    +0.000 HD
ATOM     18  H   UNL     1       0.632  -7.337  18.261  0.00  0.00    +0.000 HD
BRANCH  16  19
ATOM     19  C   UNL     1      -0.622  -8.648  17.122  0.00  0.00    +0.000 C 
ATOM     20  H   UNL     1      -1.600  -8.974  17.497  0.00  0.00    +0.000 HD
ATOM     21  H   UNL     1      -0.698  -8.592  16.029  0.00  0.00    +0.000 HD
BRANCH  19  22
ATOM     22  C   UNL     1       0.445  -9.671  17.508  0.00  0.00    +0.000 C 
ATOM     23  H   UNL     1       1.013  -9.969  16.619  0.00  0.00    +0.000 HD
ATOM     24  H   UNL     1      -0.030 -10.574  17.908  0.00  0.00    +0.000 HD
BRANCH  22  25
ATOM     25  C   UNL     1       1.403  -9.112  18.549  0.00  0.00    +0.000 C 
ATOM     26  H   UNL     1       1.725  -9.892  19.245  0.00  0.00    +0.000 HD
ATOM     27  H   UNL     1       0.914  -8.321  19.127  0.00  0.00    +0.000 HD
ATOM     28  H   UNL     1       2.292  -8.685  18.073  0.00  0.00    +0.000 HD
ENDBRANCH  22  25
ENDBRANCH  19  22
ENDBRANCH  16  19
ENDBRANCH  13  16
ENDBRANCH   3  13
BRANCH   2  29
ATOM     29  C   UNL     1       3.603  -6.850  16.149  0.00  0.00    +0.000 C 
ATOM     30  H   UNL     1       3.667  -6.762  17.240  0.00  0.00    +0.000 HD
ATOM     31  H   UNL     1       4.081  -5.966  15.713  0.00  0.00    +0.000 HD
BRANCH  29  33
ATOM     32  O   UNL     1       4.089  -9.223  15.940  0.00  0.00    +0.000 OA
ATOM     33  C   UNL     1       4.394  -8.060  15.714  0.00  0.00    +0.000 C 
BRANCH  33  34
ATOM     34  O   UNL     1       5.500  -7.640  15.031  0.00  0.00    +0.000 OA
BRANCH  34  35
ATOM     35  C   UNL     1       5.499  -7.916  13.627  0.00  0.00    +0.000 C 
ATOM     36  H   UNL     1       5.472  -6.982  13.058  0.00  0.00    +0.000 HD
ATOM     37  H   UNL     1       6.377  -8.510  13.357  0.00  0.00    +0.000 HD
ATOM     38  H   UNL     1       4.599  -8.494  13.394  0.00  0.00    +0.000 HD
ENDBRANCH  34  35
ENDBRANCH  33  34
ENDBRANCH  29  33
ENDBRANCH   2  29
TORSDOF 9
ENDMDL
MODEL 6
REMARK VINA RESULT:    -4.456      1.816      4.121
REMARK INTER + INTRA:          -7.178
REMARK INTER:                  -6.284
REMARK INTRA:                  -0.894
REMARK UNBOUND:                -0.639
REMARK  Name = 102861
REMARK  9 active torsions:
REMARK  status: ('A' for Active; 'I' for Inactive)
REMARK    1  A    between atoms: O_2  and  C_13
REMARK    2  A    between atoms: O_2  and  C_16
REMARK    3  A    between atoms: C_4  and  C_10
REMARK    4  A    between atoms: C_5  and  C_7
REMARK    5  A    between atoms: C_7  and  C_11
REMARK    6  A    between atoms: C_10  and  C_13
REMARK    7  A    between atoms: C_11  and  C_12
REMARK    8  A    between atoms: C_12  and  C_14
REMARK    9  A    between atoms: C_14  and  C_15
REMARK                            x       y       z     vdW  Elec       q    Type
REMARK                         _______ _______ _______ _____ _____    ______ ____
ROOT
ATOM      1  O   UNL     1      -2.931  -6.170 -10.054  0.00  0.00    +0.000 OA
ATOM      2  C   UNL     1      -4.701  -9.052  -8.942  0.00  0.00    +0.000 C 
ATOM      3  C   UNL     1      -4.564  -7.520  -8.879  0.00  0.00    +0.000 C 
ATOM      4  C   UNL     1      -4.299  -9.414 -10.376  0.00  0.00    +0.000 C 
ATOM      5  C   UNL     1      -3.151  -8.474 -10.725  0.00  0.00    +0.000 C 
ATOM      6  C   UNL     1      -3.481  -7.254  -9.905  0.00  0.00    +0.000 C 
ATOM      7  H   UNL     1      -5.724  -9.397  -8.765  0.00  0.00    +0.000 HD
ATOM      8  H   UNL     1      -4.213  -7.165  -7.905  0.00  0.00    +0.000 HD
ATOM      9  H   UNL     1      -4.014 -10.464 -10.490  0.00  0.00    +0.000 HD
ATOM     10  H   UNL     1      -5.142  -9.229 -11.054  0.00  0.00    +0.000 HD
ATOM     11  H   UNL     1      -2.187  -8.874 -10.400  0.00  0.00    +0.000 HD
ATOM     12  H   UNL     1      -3.131  -8.239 -11.791  0.00  0.00    +0.000 HD
ENDROOT
BRANCH   3  13
ATOM     13  C   UNL     1      -5.841  -6.796  -9.280  0.00  0.00    +0.000 C 
ATOM     14  H   UNL     1      -6.608  -7.511  -9.608  0.00  0.00    +0.000 HD
ATOM     15  H   UNL     1      -5.639  -6.153 -10.147  0.00  0.00    +0.000 HD
BRANCH  13  16
ATOM     16  C   UNL     1      -6.387  -5.940  -8.137  0.00  0.00    +0.000 C 
ATOM     17  H   UNL     1      -6.497  -4.903  -8.476  0.00  0.00    +0.000 HD
ATOM     18  H   UNL     1      -5.697  -5.930  -7.288  0.00  0.00    +0.000 HD
BRANCH  16  19
ATOM     19  C   UNL     1      -7.741  -6.458  -7.646  0.00  0.00    +0.000 C 
ATOM     20  H   UNL     1      -8.198  -5.720  -6.976  0.00  0.00    +0.000 HD
ATOM     21  H   UNL     1      -8.418  -6.579  -8.502  0.00  0.00    +0.000 HD
BRANCH  19  22
ATOM     22  C   UNL     1      -7.595  -7.794  -6.919  0.00  0.00    +0.000 C 
ATOM     23  H   UNL     1      -7.223  -8.557  -7.614  0.00  0.00    +0.000 HD
ATOM     24  H   UNL     1      -8.573  -8.132  -6.558  0.00  0.00    +0.000 HD
BRANCH  22  25
ATOM     25  C   UNL     1      -6.641  -7.685  -5.740  0.00  0.00    +0.000 C 
ATOM     26  H   UNL     1      -6.603  -8.623  -5.178  0.00  0.00    +0.000 HD
ATOM     27  H   UNL     1      -6.969  -6.893  -5.060  0.00  0.00    +0.000 HD
ATOM     28  H   UNL     1      -5.627  -7.445  -6.078  0.00  0.00    +0.000 HD
ENDBRANCH  22  25
ENDBRANCH  19  22
ENDBRANCH  16  19
ENDBRANCH  13  16
ENDBRANCH   3  13
BRANCH   2  29
ATOM     29  C   UNL     1      -3.797  -9.741  -7.917  0.00  0.00    +0.000 C 
ATOM     30  H   UNL     1      -3.533  -9.041  -7.115  0.00  0.00    +0.000 HD
ATOM     31  H   UNL     1      -2.866 -10.074  -8.389  0.00  0.00    +0.000 HD
BRANCH  29  33
ATOM     32  O   UNL     1      -5.226 -10.931  -6.351  0.00  0.00    +0.000 OA
ATOM     33  C   UNL     1      -4.458 -10.951  -7.302  0.00  0.00    +0.000 C 
BRANCH  33  34
ATOM     34  O   UNL     1      -4.057 -12.065  -7.984  0.00  0.00    +0.000 OA
BRANCH  34  35
ATOM     35  C   UNL     1      -4.838 -13.242  -7.756  0.00  0.00    +0.000 C 
ATOM     36  H   UNL     1      -5.905 -12.999  -7.787  0.00  0.00    +0.000 HD
ATOM     37  H   UNL     1      -4.593 -14.009  -8.497  0.00  0.00    +0.000 HD
ATOM     38  H   UNL     1      -4.595 -13.625  -6.761  0.00  0.00    +0.000 HD
ENDBRANCH  34  35
ENDBRANCH  33  34
ENDBRANCH  29  33
ENDBRANCH   2  29
TORSDOF 9
ENDMDL
MODEL 7
REMARK VINA RESULT:    -4.324      1.924      3.705
REMARK INTER + INTRA:          -6.985
REMARK INTER:                  -6.319
REMARK INTRA:                  -0.666
REMARK UNBOUND:                -0.639
REMARK  Name = 102861
REMARK  9 active torsions:
REMARK  status: ('A' for Active; 'I' for Inactive)
REMARK    1  A    between atoms: O_2  and  C_13
REMARK    2  A    between atoms: O_2  and  C_16
REMARK    3  A    between atoms: C_4  and  C_10
REMARK    4  A    between atoms: C_5  and  C_7
REMARK    5  A    between atoms: C_7  and  C_11
REMARK    6  A    between atoms: C_10  and  C_13
REMARK    7  A    between atoms: C_11  and  C_12
REMARK    8  A    between atoms: C_12  and  C_14
REMARK    9  A    between atoms: C_14  and  C_15
REMARK                            x       y       z     vdW  Elec       q    Type
REMARK                         _______ _______ _______ _____ _____    ______ ____
ROOT
ATOM      1  O   UNL     1      -3.660  -8.376 -12.610  0.00  0.00    +0.000 OA
ATOM      2  C   UNL     1      -4.449  -7.207  -9.341  0.00  0.00    +0.000 C 
ATOM      3  C   UNL     1      -4.404  -8.407 -10.304  0.00  0.00    +0.000 C 
ATOM      4  C   UNL     1      -3.247  -6.346  -9.745  0.00  0.00    +0.000 C 
ATOM      5  C   UNL     1      -3.176  -6.436 -11.264  0.00  0.00    +0.000 C 
ATOM      6  C   UNL     1      -3.736  -7.809 -11.527  0.00  0.00    +0.000 C 
ATOM      7  H   UNL     1      -4.338  -7.497  -8.292  0.00  0.00    +0.000 HD
ATOM      8  H   UNL     1      -5.401  -8.757 -10.591  0.00  0.00    +0.000 HD
ATOM      9  H   UNL     1      -3.325  -5.310  -9.402  0.00  0.00    +0.000 HD
ATOM     10  H   UNL     1      -2.330  -6.766  -9.311  0.00  0.00    +0.000 HD
ATOM     11  H   UNL     1      -3.816  -5.691 -11.745  0.00  0.00    +0.000 HD
ATOM     12  H   UNL     1      -2.149  -6.353 -11.628  0.00  0.00    +0.000 HD
ENDROOT
BRANCH   3  13
ATOM     13  C   UNL     1      -3.566  -9.560  -9.772  0.00  0.00    +0.000 C 
ATOM     14  H   UNL     1      -2.782  -9.193  -9.096  0.00  0.00    +0.000 HD
ATOM     15  H   UNL     1      -3.042 -10.045 -10.606  0.00  0.00    +0.000 HD
BRANCH  13  16
ATOM     16  C   UNL     1      -4.428 -10.597  -9.050  0.00  0.00    +0.000 C 
ATOM     17  H   UNL     1      -4.163 -11.602  -9.402  0.00  0.00    +0.000 HD
ATOM     18  H   UNL     1      -5.489 -10.449  -9.270  0.00  0.00    +0.000 HD
BRANCH  16  19
ATOM     19  C   UNL     1      -4.238 -10.525  -7.534  0.00  0.00    +0.000 C 
ATOM     20  H   UNL     1      -3.201 -10.249  -7.305  0.00  0.00    +0.000 HD
ATOM     21  H   UNL     1      -4.880  -9.736  -7.122  0.00  0.00    +0.000 HD
BRANCH  19  22
ATOM     22  C   UNL     1      -4.576 -11.857  -6.867  0.00  0.00    +0.000 C 
ATOM     23  H   UNL     1      -5.646 -11.896  -6.635  0.00  0.00    +0.000 HD
ATOM     24  H   UNL     1      -4.034 -11.949  -5.919  0.00  0.00    +0.000 HD
BRANCH  22  25
ATOM     25  C   UNL     1      -4.215 -13.034  -7.760  0.00  0.00    +0.000 C 
ATOM     26  H   UNL     1      -3.736 -12.694  -8.683  0.00  0.00    +0.000 HD
ATOM     27  H   UNL     1      -5.116 -13.594  -8.031  0.00  0.00    +0.000 HD
ATOM     28  H   UNL     1      -3.530 -13.718  -7.248  0.00  0.00    +0.000 HD
ENDBRANCH  22  25
ENDBRANCH  19  22
ENDBRANCH  16  19
ENDBRANCH  13  16
ENDBRANCH   3  13
BRANCH   2  29
ATOM     29  C   UNL     1      -5.762  -6.430  -9.469  0.00  0.00    +0.000 C 
ATOM     30  H   UNL     1      -6.367  -6.843 -10.285  0.00  0.00    +0.000 HD
ATOM     31  H   UNL     1      -5.563  -5.377  -9.700  0.00  0.00    +0.000 HD
BRANCH  29  33
ATOM     32  O   UNL     1      -7.241  -5.553  -7.751  0.00  0.00    +0.000 OA
ATOM     33  C   UNL     1      -6.572  -6.475  -8.197  0.00  0.00    +0.000 C 
BRANCH  33  34
ATOM     34  O   UNL     1      -6.433  -7.710  -7.631  0.00  0.00    +0.000 OA
BRANCH  34  35
ATOM     35  C   UNL     1      -6.645  -7.767  -6.216  0.00  0.00    +0.000 C 
ATOM     36  H   UNL     1      -7.529  -8.371  -5.990  0.00  0.00    +0.000 HD
ATOM     37  H   UNL     1      -5.760  -8.174  -5.717  0.00  0.00    +0.000 HD
ATOM     38  H   UNL     1      -6.814  -6.748  -5.856  0.00  0.00    +0.000 HD
ENDBRANCH  34  35
ENDBRANCH  33  34
ENDBRANCH  29  33
ENDBRANCH   2  29
TORSDOF 9
ENDMDL
MODEL 8
REMARK VINA RESULT:    -4.323     23.339     25.715
REMARK INTER + INTRA:          -6.984
REMARK INTER:                  -5.969
REMARK INTRA:                  -1.015
REMARK UNBOUND:                -0.639
REMARK  Name = 102861
REMARK  9 active torsions:
REMARK  status: ('A' for Active; 'I' for Inactive)
REMARK    1  A    between atoms: O_2  and  C_13
REMARK    2  A    between atoms: O_2  and  C_16
REMARK    3  A    between atoms: C_4  and  C_10
REMARK    4  A    between atoms: C_5  and  C_7
REMARK    5  A    between atoms: C_7  and  C_11
REMARK    6  A    between atoms: C_10  and  C_13
REMARK    7  A    between atoms: C_11  and  C_12
REMARK    8  A    between atoms: C_12  and  C_14
REMARK    9  A    between atoms: C_14  and  C_15
REMARK                            x       y       z     vdW  Elec       q    Type
REMARK                         _______ _______ _______ _____ _____    ______ ____
ROOT
ATOM      1  O   UNL     1     -23.121  -3.751  11.548  0.00  0.00    +0.000 OA
ATOM      2  C   UNL     1     -21.039  -0.866  11.669  0.00  0.00    +0.000 C 
ATOM      3  C   UNL     1     -21.112  -2.396  11.523  0.00  0.00    +0.000 C 
ATOM      4  C   UNL     1     -22.314  -0.354  10.990  0.00  0.00    +0.000 C 
ATOM      5  C   UNL     1     -23.397  -1.365  11.347  0.00  0.00    +0.000 C 
ATOM      6  C   UNL     1     -22.607  -2.641  11.480  0.00  0.00    +0.000 C 
ATOM      7  H   UNL     1     -20.172  -0.430  11.164  0.00  0.00    +0.000 HD
ATOM      8  H   UNL     1     -20.700  -2.925  12.389  0.00  0.00    +0.000 HD
ATOM      9  H   UNL     1     -22.587   0.660  11.297  0.00  0.00    +0.000 HD
ATOM     10  H   UNL     1     -22.173  -0.340   9.902  0.00  0.00    +0.000 HD
ATOM     11  H   UNL     1     -23.867  -1.133  12.307  0.00  0.00    +0.000 HD
ATOM     12  H   UNL     1     -24.150  -1.447  10.560  0.00  0.00    +0.000 HD
ENDROOT
BRANCH   3  13
ATOM     13  C   UNL     1     -20.472  -2.898  10.237  0.00  0.00    +0.000 C 
ATOM     14  H   UNL     1     -21.113  -2.680   9.372  0.00  0.00    +0.000 HD
ATOM     15  H   UNL     1     -20.382  -3.991  10.278  0.00  0.00    +0.000 HD
BRANCH  13  16
ATOM     16  C   UNL     1     -19.087  -2.288  10.021  0.00  0.00    +0.000 C 
ATOM     17  H   UNL     1     -18.317  -3.024  10.284  0.00  0.00    +0.000 HD
ATOM     18  H   UNL     1     -18.934  -1.419  10.668  0.00  0.00    +0.000 HD
BRANCH  16  19
ATOM     19  C   UNL     1     -18.889  -1.846   8.570  0.00  0.00    +0.000 C 
ATOM     20  H   UNL     1     -18.180  -1.010   8.532  0.00  0.00    +0.000 HD
ATOM     21  H   UNL     1     -18.449  -2.669   7.993  0.00  0.00    +0.000 HD
BRANCH  19  22
ATOM     22  C   UNL     1     -20.213  -1.427   7.931  0.00  0.00    +0.000 C 
ATOM     23  H   UNL     1     -20.303  -0.335   7.944  0.00  0.00    +0.000 HD
ATOM     24  H   UNL     1     -21.051  -1.829   8.512  0.00  0.00    +0.000 HD
BRANCH  22  25
ATOM     25  C   UNL     1     -20.320  -1.921   6.497  0.00  0.00    +0.000 C 
ATOM     26  H   UNL     1     -21.022  -2.757   6.421  0.00  0.00    +0.000 HD
ATOM     27  H   UNL     1     -19.344  -2.262   6.140  0.00  0.00    +0.000 HD
ATOM     28  H   UNL     1     -20.665  -1.121   5.833  0.00  0.00    +0.000 HD
ENDBRANCH  22  25
ENDBRANCH  19  22
ENDBRANCH  16  19
ENDBRANCH  13  16
ENDBRANCH   3  13
BRANCH   2  29
ATOM     29  C   UNL     1     -20.979  -0.442  13.139  0.00  0.00    +0.000 C 
ATOM     30  H   UNL     1     -21.894  -0.750  13.659  0.00  0.00    +0.000 HD
ATOM     31  H   UNL     1     -20.898   0.647  13.221  0.00  0.00    +0.000 HD
BRANCH  29  33
ATOM     32  O   UNL     1     -19.853  -1.770  14.837  0.00  0.00    +0.000 OA
ATOM     33  C   UNL     1     -19.793  -1.045  13.853  0.00  0.00    +0.000 C 
BRANCH  33  34
ATOM     34  O   UNL     1     -18.650  -0.648  13.219  0.00  0.00    +0.000 OA
BRANCH  34  35
ATOM     35  C   UNL     1     -17.476  -1.402  13.537  0.00  0.00    +0.000 C 
ATOM     36  H   UNL     1     -16.791  -1.413  12.684  0.00  0.00    +0.000 HD
ATOM     37  H   UNL     1     -16.986  -0.985  14.422  0.00  0.00    +0.000 HD
ATOM     38  H   UNL     1     -17.780  -2.430  13.757  0.00  0.00    +0.000 HD
ENDBRANCH  34  35
ENDBRANCH  33  34
ENDBRANCH  29  33
ENDBRANCH   2  29
TORSDOF 9
ENDMDL
MODEL 9
REMARK VINA RESULT:    -4.317      1.880      3.444
REMARK INTER + INTRA:          -6.975
REMARK INTER:                  -5.989
REMARK INTRA:                  -0.986
REMARK UNBOUND:                -0.639
REMARK  Name = 102861
REMARK  9 active torsions:
REMARK  status: ('A' for Active; 'I' for Inactive)
REMARK    1  A    between atoms: O_2  and  C_13
REMARK    2  A    between atoms: O_2  and  C_16
REMARK    3  A    between atoms: C_4  and  C_10
REMARK    4  A    between atoms: C_5  and  C_7
REMARK    5  A    between atoms: C_7  and  C_11
REMARK    6  A    between atoms: C_10  and  C_13
REMARK    7  A    between atoms: C_11  and  C_12
REMARK    8  A    between atoms: C_12  and  C_14
REMARK    9  A    between atoms: C_14  and  C_15
REMARK                            x       y       z     vdW  Elec       q    Type
REMARK                         _______ _______ _______ _____ _____    ______ ____
ROOT
ATOM      1  O   UNL     1      -6.074  -6.595  -9.988  0.00  0.00    +0.000 OA
ATOM      2  C   UNL     1      -3.545  -9.040  -9.442  0.00  0.00    +0.000 C 
ATOM      3  C   UNL     1      -4.931  -8.731 -10.036  0.00  0.00    +0.000 C 
ATOM      4  C   UNL     1      -2.750  -7.743  -9.629  0.00  0.00    +0.000 C 
ATOM      5  C   UNL     1      -3.744  -6.618  -9.373  0.00  0.00    +0.000 C 
ATOM      6  C   UNL     1      -5.043  -7.235  -9.820  0.00  0.00    +0.000 C 
ATOM      7  H   UNL     1      -3.028  -9.850  -9.966  0.00  0.00    +0.000 HD
ATOM      8  H   UNL     1      -5.745  -9.221  -9.491  0.00  0.00    +0.000 HD
ATOM      9  H   UNL     1      -1.879  -7.675  -8.971  0.00  0.00    +0.000 HD
ATOM     10  H   UNL     1      -2.385  -7.680 -10.662  0.00  0.00    +0.000 HD
ATOM     11  H   UNL     1      -3.812  -6.372  -8.309  0.00  0.00    +0.000 HD
ATOM     12  H   UNL     1      -3.508  -5.727  -9.959  0.00  0.00    +0.000 HD
ENDROOT
BRANCH   3  13
ATOM     13  C   UNL     1      -5.021  -9.044 -11.522  0.00  0.00    +0.000 C 
ATOM     14  H   UNL     1      -4.943  -8.126 -12.119  0.00  0.00    +0.000 HD
ATOM     15  H   UNL     1      -6.009  -9.467 -11.746  0.00  0.00    +0.000 HD
BRANCH  13  16
ATOM     16  C   UNL     1      -3.941 -10.036 -11.955  0.00  0.00    +0.000 C 
ATOM     17  H   UNL     1      -4.378 -11.039 -12.042  0.00  0.00    +0.000 HD
ATOM     18  H   UNL     1      -3.141 -10.097 -11.212  0.00  0.00    +0.000 HD
BRANCH  16  19
ATOM     19  C   UNL     1      -3.320  -9.638 -13.296  0.00  0.00    +0.000 C 
ATOM     20  H   UNL     1      -2.799 -10.499 -13.732  0.00  0.00    +0.000 HD
ATOM     21  H   UNL     1      -4.115  -9.353 -13.997  0.00  0.00    +0.000 HD
BRANCH  19  22
ATOM     22  C   UNL     1      -2.344  -8.474 -13.133  0.00  0.00    +0.000 C 
ATOM     23  H   UNL     1      -1.350  -8.770 -13.487  0.00  0.00    +0.000 HD
ATOM     24  H   UNL     1      -2.246  -8.214 -12.072  0.00  0.00    +0.000 HD
BRANCH  22  25
ATOM     25  C   UNL     1      -2.805  -7.247 -13.904  0.00  0.00    +0.000 C 
ATOM     26  H   UNL     1      -2.705  -7.402 -14.983  0.00  0.00    +0.000 HD
ATOM     27  H   UNL     1      -2.202  -6.377 -13.627  0.00  0.00    +0.000 HD
ATOM     28  H   UNL     1      -3.853  -7.019 -13.685  0.00  0.00    +0.000 HD
ENDBRANCH  22  25
ENDBRANCH  19  22
ENDBRANCH  16  19
ENDBRANCH  13  16
ENDBRANCH   3  13
BRANCH   2  29
ATOM     29  C   UNL     1      -3.639  -9.432  -7.965  0.00  0.00    +0.000 C 
ATOM     30  H   UNL     1      -4.215  -8.681  -7.411  0.00  0.00    +0.000 HD
ATOM     31  H   UNL     1      -2.640  -9.483  -7.518  0.00  0.00    +0.000 HD
BRANCH  29  33
ATOM     32  O   UNL     1      -4.166 -11.738  -8.525  0.00  0.00    +0.000 OA
ATOM     33  C   UNL     1      -4.295 -10.778  -7.778  0.00  0.00    +0.000 C 
BRANCH  33  34
ATOM     34  O   UNL     1      -5.049 -10.745  -6.640  0.00  0.00    +0.000 OA
BRANCH  34  35
ATOM     35  C   UNL     1      -5.571  -9.461  -6.283  0.00  0.00    +0.000 C 
ATOM     36  H   UNL     1      -5.003  -9.041  -5.447  0.00  0.00    +0.000 HD
ATOM     37  H   UNL     1      -5.545  -8.788  -7.146  0.00  0.00    +0.000 HD
ATOM     38  H   UNL     1      -6.611  -9.590  -5.970  0.00  0.00    +0.000 HD
ENDBRANCH  34  35
ENDBRANCH  33  34
ENDBRANCH  29  33
ENDBRANCH   2  29
TORSDOF 9
ENDMDL
MODEL 10
REMARK VINA RESULT:    -4.276     30.065     31.625
REMARK INTER + INTRA:          -6.914
REMARK INTER:                  -6.276
REMARK INTRA:                  -0.639
REMARK UNBOUND:                -0.639
REMARK  Name = 102861
REMARK  9 active torsions:
REMARK  status: ('A' for Active; 'I' for Inactive)
REMARK    1  A    between atoms: O_2  and  C_13
REMARK    2  A    between atoms: O_2  and  C_16
REMARK    3  A    between atoms: C_4  and  C_10
REMARK    4  A    between atoms: C_5  and  C_7
REMARK    5  A    between atoms: C_7  and  C_11
REMARK    6  A    between atoms: C_10  and  C_13
REMARK    7  A    between atoms: C_11  and  C_12
REMARK    8  A    between atoms: C_12  and  C_14
REMARK    9  A    between atoms: C_14  and  C_15
REMARK                            x       y       z     vdW  Elec       q    Type
REMARK                         _______ _______ _______ _____ _____    ______ ____
ROOT
ATOM      1  O   UNL     1      19.078   9.410   5.130  0.00  0.00    +0.000 OA
ATOM      2  C   UNL     1      19.067   8.291   1.751  0.00  0.00    +0.000 C 
ATOM      3  C   UNL     1      18.380   8.239   3.127  0.00  0.00    +0.000 C 
ATOM      4  C   UNL     1      19.616   9.718   1.650  0.00  0.00    +0.000 C 
ATOM      5  C   UNL     1      20.105  10.065   3.050  0.00  0.00    +0.000 C 
ATOM      6  C   UNL     1      19.176   9.257   3.919  0.00  0.00    +0.000 C 
ATOM      7  H   UNL     1      18.374   8.120   0.922  0.00  0.00    +0.000 HD
ATOM      8  H   UNL     1      18.483   7.264   3.616  0.00  0.00    +0.000 HD
ATOM      9  H   UNL     1      20.410   9.821   0.904  0.00  0.00    +0.000 HD
ATOM     10  H   UNL     1      18.809  10.404   1.364  0.00  0.00    +0.000 HD
ATOM     11  H   UNL     1      21.132   9.728   3.216  0.00  0.00    +0.000 HD
ATOM     12  H   UNL     1      20.012  11.132   3.259  0.00  0.00    +0.000 HD
ENDROOT
BRANCH   3  13
ATOM     13  C   UNL     1      16.918   8.657   3.074  0.00  0.00    +0.000 C 
ATOM     14  H   UNL     1      16.788   9.672   3.472  0.00  0.00    +0.000 HD
ATOM     15  H   UNL     1      16.327   8.000   3.725  0.00  0.00    +0.000 HD
BRANCH  13  16
ATOM     16  C   UNL     1      16.362   8.585   1.651  0.00  0.00    +0.000 C 
ATOM     17  H   UNL     1      15.610   7.789   1.592  0.00  0.00    +0.000 HD
ATOM     18  H   UNL     1      17.150   8.338   0.933  0.00  0.00    +0.000 HD
BRANCH  16  19
ATOM     19  C   UNL     1      15.729   9.913   1.230  0.00  0.00    +0.000 C 
ATOM     20  H   UNL     1      16.468  10.521   0.694  0.00  0.00    +0.000 HD
ATOM     21  H   UNL     1      14.904   9.719   0.532  0.00  0.00    +0.000 HD
BRANCH  19  22
ATOM     22  C   UNL     1      15.204  10.686   2.438  0.00  0.00    +0.000 C 
ATOM     23  H   UNL     1      15.885  11.512   2.675  0.00  0.00    +0.000 HD
ATOM     24  H   UNL     1      15.170  10.031   3.316  0.00  0.00    +0.000 HD
BRANCH  22  25
ATOM     25  C   UNL     1      13.813  11.245   2.181  0.00  0.00    +0.000 C 
ATOM     26  H   UNL     1      13.562  12.023   2.908  0.00  0.00    +0.000 HD
ATOM     27  H   UNL     1      13.065  10.450   2.263  0.00  0.00    +0.000 HD
ATOM     28  H   UNL     1      13.743  11.675   1.177  0.00  0.00    +0.000 HD
ENDBRANCH  22  25
ENDBRANCH  19  22
ENDBRANCH  16  19
ENDBRANCH  13  16
ENDBRANCH   3  13
BRANCH   2  29
ATOM     29  C   UNL     1      20.186   7.252   1.640  0.00  0.00    +0.000 C 
ATOM     30  H   UNL     1      19.828   6.273   1.982  0.00  0.00    +0.000 HD
ATOM     31  H   UNL     1      21.037   7.536   2.269  0.00  0.00    +0.000 HD
BRANCH  29  33
ATOM     32  O   UNL     1      20.069   7.426  -0.782  0.00  0.00    +0.000 OA
ATOM     33  C   UNL     1      20.690   7.112   0.224  0.00  0.00    +0.000 C 
BRANCH  33  34
ATOM     34  O   UNL     1      21.948   6.580   0.255  0.00  0.00    +0.000 OA
BRANCH  34  35
ATOM     35  C   UNL     1      23.006   7.480  -0.090  0.00  0.00    +0.000 C 
ATOM     36  H   UNL     1      23.171   8.198   0.718  0.00  0.00    +0.000 HD
ATOM     37  H   UNL     1      23.922   6.923  -0.306  0.00  0.00    +0.000 HD
ATOM     38  H   UNL     1      22.708   8.027  -0.990  0.00  0.00    +0.000 HD
ENDBRANCH  34  35
ENDBRANCH  33  34
ENDBRANCH  29  33
ENDBRANCH   2  29
TORSDOF 9
ENDMDL
