MODEL 1
REMARK VINA RESULT:    -4.053      0.000      0.000
REMARK INTER + INTRA:          -5.461
REMARK INTER:                  -5.389
REMARK INTRA:                  -0.073
REMARK UNBOUND:                -0.105
REMARK  Name = 8130
REMARK  6 active torsions:
REMARK  status: ('A' for Active; 'I' for Inactive)
REMARK    1  A    between atoms: C_2  and  C_3
REMARK    2  A    between atoms: C_2  and  C_4
REMARK    3  A    between atoms: C_3  and  C_5
REMARK    4  A    between atoms: C_4  and  C_6
REMARK    5  A    between atoms: C_5  and  C_7
REMARK    6  A    between atoms: C_6  and  C_8
REMARK                            x       y       z     vdW  Elec       q    Type
REMARK                         _______ _______ _______ _____ _____    ______ ____
ROOT
ATOM      1  C   UNL     1       0.689  -5.342  15.106  0.00  0.00    +0.000 C 
ATOM      2  H   UNL     1       1.373  -6.024  14.588  0.00  0.00    +0.000 HD
ATOM      3  H   UNL     1       0.061  -4.870  14.340  0.00  0.00    +0.000 HD
ENDROOT
BRANCH   1   4
ATOM      4  C   UNL     1      -0.192  -6.131  16.076  0.00  0.00    +0.000 C 
ATOM      5  H   UNL     1      -1.195  -6.253  15.648  0.00  0.00    +0.000 HD
ATOM      6  H   UNL     1      -0.305  -5.566  17.009  0.00  0.00    +0.000 HD
BRANCH   4   7
ATOM      7  C   UNL     1       0.404  -7.506  16.377  0.00  0.00    +0.000 C 
ATOM      8  H   UNL     1       0.357  -8.136  15.482  0.00  0.00    +0.000 HD
ATOM      9  H   UNL     1       1.463  -7.403  16.646  0.00  0.00    +0.000 HD
BRANCH   7  10
ATOM     10  C   UNL     1      -0.332  -8.196  17.515  0.00  0.00    +0.000 C 
ATOM     11  H   UNL     1       0.062  -9.206  17.664  0.00  0.00    +0.000 HD
ATOM     12  H   UNL     1      -1.402  -8.277  17.297  0.00  0.00    +0.000 HD
ATOM     13  H   UNL     1      -0.212  -7.644  18.452  0.00  0.00    +0.000 HD
ENDBRANCH   7  10
ENDBRANCH   4   7
ENDBRANCH   1   4
BRANCH   1  14
ATOM     14  C   UNL     1       1.495  -4.266  15.838  0.00  0.00    +0.000 C 
ATOM     15  H   UNL     1       2.363  -4.729  16.326  0.00  0.00    +0.000 HD
ATOM     16  H   UNL     1       0.879  -3.836  16.639  0.00  0.00    +0.000 HD
BRANCH  14  17
ATOM     17  C   UNL     1       1.963  -3.154  14.904  0.00  0.00    +0.000 C 
ATOM     18  H   UNL     1       1.321  -2.273  14.996  0.00  0.00    +0.000 HD
ATOM     19  H   UNL     1       1.938  -3.493  13.863  0.00  0.00    +0.000 HD
BRANCH  17  21
ATOM     20  O   UNL     1       4.109  -2.180  14.403  0.00  0.00    +0.000 OA
ATOM     21  C   UNL     1       3.375  -2.732  15.217  0.00  0.00    +0.000 C 
ATOM     22  H   UNL     1       3.726  -2.963  16.238  0.00  0.00    +0.000 HD
ENDBRANCH  17  21
ENDBRANCH  14  17
ENDBRANCH   1  14
TORSDOF 6
ENDMDL
MODEL 2
REMARK VINA RESULT:    -3.886      3.380      5.367
REMARK INTER + INTRA:          -5.241
REMARK INTER:                  -5.133
REMARK INTRA:                  -0.109
REMARK UNBOUND:                -0.105
REMARK  Name = 8130
REMARK  6 active torsions:
REMARK  status: ('A' for Active; 'I' for Inactive)
REMARK    1  A    between atoms: C_2  and  C_3
REMARK    2  A    between atoms: C_2  and  C_4
REMARK    3  A    between atoms: C_3  and  C_5
REMARK    4  A    between atoms: C_4  and  C_6
REMARK    5  A    between atoms: C_5  and  C_7
REMARK    6  A    between atoms: C_6  and  C_8
REMARK                            x       y       z     vdW  Elec       q    Type
REMARK                         _______ _______ _______ _____ _____    ______ ____
ROOT
ATOM      1  C   UNL     1       0.397  -5.158  16.199  0.00  0.00    +0.000 C 
ATOM      2  H   UNL     1       1.185  -5.271  16.952  0.00  0.00    +0.000 HD
ATOM      3  H   UNL     1      -0.063  -4.175  16.358  0.00  0.00    +0.000 HD
ENDROOT
BRANCH   1   4
ATOM      4  C   UNL     1       1.008  -5.218  14.798  0.00  0.00    +0.000 C 
ATOM      5  H   UNL     1       0.258  -4.918  14.055  0.00  0.00    +0.000 HD
ATOM      6  H   UNL     1       1.297  -6.251  14.569  0.00  0.00    +0.000 HD
BRANCH   4   7
ATOM      7  C   UNL     1       2.230  -4.305  14.684  0.00  0.00    +0.000 C 
ATOM      8  H   UNL     1       3.038  -4.686  15.318  0.00  0.00    +0.000 HD
ATOM      9  H   UNL     1       2.599  -4.303  13.652  0.00  0.00    +0.000 HD
BRANCH   7  10
ATOM     10  C   UNL     1       1.899  -2.879  15.096  0.00  0.00    +0.000 C 
ATOM     11  H   UNL     1       2.671  -2.192  14.735  0.00  0.00    +0.000 HD
ATOM     12  H   UNL     1       1.846  -2.788  16.186  0.00  0.00    +0.000 HD
ATOM     13  H   UNL     1       0.940  -2.561  14.677  0.00  0.00    +0.000 HD
ENDBRANCH   7  10
ENDBRANCH   4   7
ENDBRANCH   1   4
BRANCH   1  14
ATOM     14  C   UNL     1      -0.657  -6.251  16.392  0.00  0.00    +0.000 C 
ATOM     15  H   UNL     1      -0.727  -6.856  15.478  0.00  0.00    +0.000 HD
ATOM     16  H   UNL     1      -1.641  -5.784  16.532  0.00  0.00    +0.000 HD
BRANCH  14  17
ATOM     17  C   UNL     1      -0.348  -7.154  17.582  0.00  0.00    +0.000 C 
ATOM     18  H   UNL     1      -1.235  -7.289  18.208  0.00  0.00    +0.000 HD
ATOM     19  H   UNL     1       0.446  -6.717  18.197  0.00  0.00    +0.000 HD
BRANCH  17  21
ATOM     20  O   UNL     1      -0.409  -9.561  17.509  0.00  0.00    +0.000 OA
ATOM     21  C   UNL     1       0.113  -8.516  17.134  0.00  0.00    +0.000 C 
ATOM     22  H   UNL     1       0.976  -8.524  16.445  0.00  0.00    +0.000 HD
ENDBRANCH  17  21
ENDBRANCH  14  17
ENDBRANCH   1  14
TORSDOF 6
ENDMDL
MODEL 3
REMARK VINA RESULT:    -3.744      1.926      2.365
REMARK INTER + INTRA:          -5.053
REMARK INTER:                  -4.911
REMARK INTRA:                  -0.143
REMARK UNBOUND:                -0.105
REMARK  Name = 8130
REMARK  6 active torsions:
REMARK  status: ('A' for Active; 'I' for Inactive)
REMARK    1  A    between atoms: C_2  and  C_3
REMARK    2  A    between atoms: C_2  and  C_4
REMARK    3  A    between atoms: C_3  and  C_5
REMARK    4  A    between atoms: C_4  and  C_6
REMARK    5  A    between atoms: C_5  and  C_7
REMARK    6  A    between atoms: C_6  and  C_8
REMARK                            x       y       z     vdW  Elec       q    Type
REMARK                         _______ _______ _______ _____ _____    ______ ____
ROOT
ATOM      1  C   UNL     1       2.017  -5.232  14.414  0.00  0.00    +0.000 C 
ATOM      2  H   UNL     1       2.844  -4.753  13.877  0.00  0.00    +0.000 HD
ATOM      3  H   UNL     1       1.328  -5.628  13.658  0.00  0.00    +0.000 HD
ENDROOT
BRANCH   1   4
ATOM      4  C   UNL     1       2.553  -6.381  15.270  0.00  0.00    +0.000 C 
ATOM      5  H   UNL     1       2.143  -6.308  16.284  0.00  0.00    +0.000 HD
ATOM      6  H   UNL     1       3.644  -6.296  15.354  0.00  0.00    +0.000 HD
BRANCH   4   7
ATOM      7  C   UNL     1       2.189  -7.739  14.669  0.00  0.00    +0.000 C 
ATOM      8  H   UNL     1       2.620  -8.543  15.277  0.00  0.00    +0.000 HD
ATOM      9  H   UNL     1       1.100  -7.872  14.681  0.00  0.00    +0.000 HD
BRANCH   7  10
ATOM     10  C   UNL     1       2.690  -7.868  13.239  0.00  0.00    +0.000 C 
ATOM     11  H   UNL     1       3.586  -8.497  13.207  0.00  0.00    +0.000 HD
ATOM     12  H   UNL     1       2.948  -6.888  12.824  0.00  0.00    +0.000 HD
ATOM     13  H   UNL     1       1.931  -8.325  12.597  0.00  0.00    +0.000 HD
ENDBRANCH   7  10
ENDBRANCH   4   7
ENDBRANCH   1   4
BRANCH   1  14
ATOM     14  C   UNL     1       1.291  -4.193  15.271  0.00  0.00    +0.000 C 
ATOM     15  H   UNL     1       1.390  -4.461  16.331  0.00  0.00    +0.000 HD
ATOM     16  H   UNL     1       0.218  -4.221  15.041  0.00  0.00    +0.000 HD
BRANCH  14  17
ATOM     17  C   UNL     1       1.823  -2.780  15.047  0.00  0.00    +0.000 C 
ATOM     18  H   UNL     1       1.366  -2.077  15.750  0.00  0.00    +0.000 HD
ATOM     19  H   UNL     1       1.602  -2.445  14.029  0.00  0.00    +0.000 HD
BRANCH  17  21
ATOM     20  O   UNL     1       4.080  -2.218  14.418  0.00  0.00    +0.000 OA
ATOM     21  C   UNL     1       3.316  -2.719  15.237  0.00  0.00    +0.000 C 
ATOM     22  H   UNL     1       3.697  -3.172  16.170  0.00  0.00    +0.000 HD
ENDBRANCH  17  21
ENDBRANCH  14  17
ENDBRANCH   1  14
TORSDOF 6
ENDMDL
MODEL 4
REMARK VINA RESULT:    -3.696     18.233     18.981
REMARK INTER + INTRA:          -4.989
REMARK INTER:                  -4.882
REMARK INTRA:                  -0.107
REMARK UNBOUND:                -0.105
REMARK  Name = 8130
REMARK  6 active torsions:
REMARK  status: ('A' for Active; 'I' for Inactive)
REMARK    1  A    between atoms: C_2  and  C_3
REMARK    2  A    between atoms: C_2  and  C_4
REMARK    3  A    between atoms: C_3  and  C_5
REMARK    4  A    between atoms: C_4  and  C_6
REMARK    5  A    between atoms: C_5  and  C_7
REMARK    6  A    between atoms: C_6  and  C_8
REMARK                            x       y       z     vdW  Elec       q    Type
REMARK                         _______ _______ _______ _____ _____    ______ ____
ROOT
ATOM      1  C   UNL     1       7.177 -11.546  -0.079  0.00  0.00    +0.000 C 
ATOM      2  H   UNL     1       7.404 -11.754   0.974  0.00  0.00    +0.000 HD
ATOM      3  H   UNL     1       6.394 -10.779  -0.094  0.00  0.00    +0.000 HD
ENDROOT
BRANCH   1   4
ATOM      4  C   UNL     1       8.428 -11.016  -0.783  0.00  0.00    +0.000 C 
ATOM      5  H   UNL     1       8.397 -11.288  -1.845  0.00  0.00    +0.000 HD
ATOM      6  H   UNL     1       9.318 -11.491  -0.352  0.00  0.00    +0.000 HD
BRANCH   4   7
ATOM      7  C   UNL     1       8.539  -9.497  -0.649  0.00  0.00    +0.000 C 
ATOM      8  H   UNL     1       7.841  -9.010  -1.339  0.00  0.00    +0.000 HD
ATOM      9  H   UNL     1       8.259  -9.190   0.366  0.00  0.00    +0.000 HD
BRANCH   7  10
ATOM     10  C   UNL     1       9.952  -9.015  -0.942  0.00  0.00    +0.000 C 
ATOM     11  H   UNL     1      10.677  -9.585  -0.352  0.00  0.00    +0.000 HD
ATOM     12  H   UNL     1      10.065  -7.956  -0.689  0.00  0.00    +0.000 HD
ATOM     13  H   UNL     1      10.200  -9.145  -2.000  0.00  0.00    +0.000 HD
ENDBRANCH   7  10
ENDBRANCH   4   7
ENDBRANCH   1   4
BRANCH   1  14
ATOM     14  C   UNL     1       6.658 -12.819  -0.752  0.00  0.00    +0.000 C 
ATOM     15  H   UNL     1       7.184 -13.690  -0.340  0.00  0.00    +0.000 HD
ATOM     16  H   UNL     1       6.900 -12.786  -1.822  0.00  0.00    +0.000 HD
BRANCH  14  17
ATOM     17  C   UNL     1       5.153 -12.998  -0.576  0.00  0.00    +0.000 C 
ATOM     18  H   UNL     1       4.895 -13.091   0.483  0.00  0.00    +0.000 HD
ATOM     19  H   UNL     1       4.812 -13.899  -1.096  0.00  0.00    +0.000 HD
BRANCH  17  21
ATOM     20  O   UNL     1       3.417 -11.327  -0.581  0.00  0.00    +0.000 OA
ATOM     21  C   UNL     1       4.391 -11.826  -1.137  0.00  0.00    +0.000 C 
ATOM     22  H   UNL     1       4.756 -11.439  -2.104  0.00  0.00    +0.000 HD
ENDBRANCH  17  21
ENDBRANCH  14  17
ENDBRANCH   1  14
TORSDOF 6
ENDMDL
MODEL 5
REMARK VINA RESULT:    -3.651     22.787     24.922
REMARK INTER + INTRA:          -4.930
REMARK INTER:                  -4.817
REMARK INTRA:                  -0.114
REMARK UNBOUND:                -0.105
REMARK  Name = 8130
REMARK  6 active torsions:
REMARK  status: ('A' for Active; 'I' for Inactive)
REMARK    1  A    between atoms: C_2  and  C_3
REMARK    2  A    between atoms: C_2  and  C_4
REMARK    3  A    between atoms: C_3  and  C_5
REMARK    4  A    between atoms: C_4  and  C_6
REMARK    5  A    between atoms: C_5  and  C_7
REMARK    6  A    between atoms: C_6  and  C_8
REMARK                            x       y       z     vdW  Elec       q    Type
REMARK                         _______ _______ _______ _____ _____    ______ ____
ROOT
ATOM      1  C   UNL     1       6.873  12.450  -0.389  0.00  0.00    +0.000 C 
ATOM      2  H   UNL     1       7.211  11.466  -0.042  0.00  0.00    +0.000 HD
ATOM      3  H   UNL     1       5.838  12.332  -0.733  0.00  0.00    +0.000 HD
ENDROOT
BRANCH   1   4
ATOM      4  C   UNL     1       6.917  13.450   0.768  0.00  0.00    +0.000 C 
ATOM      5  H   UNL     1       6.272  14.307   0.540  0.00  0.00    +0.000 HD
ATOM      6  H   UNL     1       7.938  13.833   0.880  0.00  0.00    +0.000 HD
BRANCH   4   7
ATOM      7  C   UNL     1       6.463  12.805   2.078  0.00  0.00    +0.000 C 
ATOM      8  H   UNL     1       7.336  12.487   2.659  0.00  0.00    +0.000 HD
ATOM      9  H   UNL     1       5.919  13.538   2.686  0.00  0.00    +0.000 HD
BRANCH   7  10
ATOM     10  C   UNL     1       5.565  11.604   1.826  0.00  0.00    +0.000 C 
ATOM     11  H   UNL     1       5.011  11.735   0.890  0.00  0.00    +0.000 HD
ATOM     12  H   UNL     1       4.839  11.481   2.636  0.00  0.00    +0.000 HD
ATOM     13  H   UNL     1       6.152  10.684   1.746  0.00  0.00    +0.000 HD
ENDBRANCH   7  10
ENDBRANCH   4   7
ENDBRANCH   1   4
BRANCH   1  14
ATOM     14  C   UNL     1       7.750  12.911  -1.555  0.00  0.00    +0.000 C 
ATOM     15  H   UNL     1       8.401  13.729  -1.221  0.00  0.00    +0.000 HD
ATOM     16  H   UNL     1       7.110  13.325  -2.346  0.00  0.00    +0.000 HD
BRANCH  14  17
ATOM     17  C   UNL     1       8.598  11.780  -2.128  0.00  0.00    +0.000 C 
ATOM     18  H   UNL     1       8.066  10.826  -2.068  0.00  0.00    +0.000 HD
ATOM     19  H   UNL     1       9.537  11.688  -1.572  0.00  0.00    +0.000 HD
BRANCH  17  21
ATOM     20  O   UNL     1      10.066  12.336  -3.956  0.00  0.00    +0.000 OA
ATOM     21  C   UNL     1       8.942  12.028  -3.574  0.00  0.00    +0.000 C 
ATOM     22  H   UNL     1       8.104  11.929  -4.286  0.00  0.00    +0.000 HD
ENDBRANCH  17  21
ENDBRANCH  14  17
ENDBRANCH   1  14
TORSDOF 6
ENDMDL
MODEL 6
REMARK VINA RESULT:    -3.637     15.973     17.726
REMARK INTER + INTRA:          -4.912
REMARK INTER:                  -4.775
REMARK INTRA:                  -0.138
REMARK UNBOUND:                -0.105
REMARK  Name = 8130
REMARK  6 active torsions:
REMARK  status: ('A' for Active; 'I' for Inactive)
REMARK    1  A    between atoms: C_2  and  C_3
REMARK    2  A    between atoms: C_2  and  C_4
REMARK    3  A    between atoms: C_3  and  C_5
REMARK    4  A    between atoms: C_4  and  C_6
REMARK    5  A    between atoms: C_5  and  C_7
REMARK    6  A    between atoms: C_6  and  C_8
REMARK                            x       y       z     vdW  Elec       q    Type
REMARK                         _______ _______ _______ _____ _____    ______ ____
ROOT
ATOM      1  C   UNL     1       6.945  -2.530   0.019  0.00  0.00    +0.000 C 
ATOM      2  H   UNL     1       7.443  -3.502   0.114  0.00  0.00    +0.000 HD
ATOM      3  H   UNL     1       6.448  -2.327   0.976  0.00  0.00    +0.000 HD
ENDROOT
BRANCH   1   4
ATOM      4  C   UNL     1       7.984  -1.441  -0.259  0.00  0.00    +0.000 C 
ATOM      5  H   UNL     1       8.313  -0.995   0.686  0.00  0.00    +0.000 HD
ATOM      6  H   UNL     1       7.524  -0.642  -0.853  0.00  0.00    +0.000 HD
BRANCH   4   7
ATOM      7  C   UNL     1       9.194  -2.005  -1.005  0.00  0.00    +0.000 C 
ATOM      8  H   UNL     1       9.912  -2.420  -0.289  0.00  0.00    +0.000 HD
ATOM      9  H   UNL     1       8.878  -2.825  -1.662  0.00  0.00    +0.000 HD
BRANCH   7  10
ATOM     10  C   UNL     1       9.880  -0.935  -1.840  0.00  0.00    +0.000 C 
ATOM     11  H   UNL     1      10.937  -0.857  -1.562  0.00  0.00    +0.000 HD
ATOM     12  H   UNL     1       9.415   0.043  -1.684  0.00  0.00    +0.000 HD
ATOM     13  H   UNL     1       9.828  -1.176  -2.907  0.00  0.00    +0.000 HD
ENDBRANCH   7  10
ENDBRANCH   4   7
ENDBRANCH   1   4
BRANCH   1  14
ATOM     14  C   UNL     1       5.898  -2.596  -1.095  0.00  0.00    +0.000 C 
ATOM     15  H   UNL     1       6.221  -3.320  -1.856  0.00  0.00    +0.000 HD
ATOM     16  H   UNL     1       5.842  -1.622  -1.597  0.00  0.00    +0.000 HD
BRANCH  14  17
ATOM     17  C   UNL     1       4.517  -2.981  -0.574  0.00  0.00    +0.000 C 
ATOM     18  H   UNL     1       4.099  -3.808  -1.154  0.00  0.00    +0.000 HD
ATOM     19  H   UNL     1       3.832  -2.129  -0.642  0.00  0.00    +0.000 HD
BRANCH  17  21
ATOM     20  O   UNL     1       4.380  -4.565   1.236  0.00  0.00    +0.000 OA
ATOM     21  C   UNL     1       4.575  -3.411   0.869  0.00  0.00    +0.000 C 
ATOM     22  H   UNL     1       4.792  -2.610   1.597  0.00  0.00    +0.000 HD
ENDBRANCH  17  21
ENDBRANCH  14  17
ENDBRANCH   1  14
TORSDOF 6
ENDMDL
MODEL 7
REMARK VINA RESULT:    -3.594     20.790     21.734
REMARK INTER + INTRA:          -4.854
REMARK INTER:                  -4.733
REMARK INTRA:                  -0.122
REMARK UNBOUND:                -0.105
REMARK  Name = 8130
REMARK  6 active torsions:
REMARK  status: ('A' for Active; 'I' for Inactive)
REMARK    1  A    between atoms: C_2  and  C_3
REMARK    2  A    between atoms: C_2  and  C_4
REMARK    3  A    between atoms: C_3  and  C_5
REMARK    4  A    between atoms: C_4  and  C_6
REMARK    5  A    between atoms: C_5  and  C_7
REMARK    6  A    between atoms: C_6  and  C_8
REMARK                            x       y       z     vdW  Elec       q    Type
REMARK                         _______ _______ _______ _____ _____    ______ ____
ROOT
ATOM      1  C   UNL     1      11.923  -9.668  -3.365  0.00  0.00    +0.000 C 
ATOM      2  H   UNL     1      11.643  -8.647  -3.650  0.00  0.00    +0.000 HD
ATOM      3  H   UNL     1      11.663 -10.321  -4.207  0.00  0.00    +0.000 HD
ENDROOT
BRANCH   1   4
ATOM      4  C   UNL     1      13.430  -9.739  -3.108  0.00  0.00    +0.000 C 
ATOM      5  H   UNL     1      13.615 -10.146  -2.107  0.00  0.00    +0.000 HD
ATOM      6  H   UNL     1      13.852  -8.727  -3.130  0.00  0.00    +0.000 HD
BRANCH   4   7
ATOM      7  C   UNL     1      14.131 -10.612  -4.150  0.00  0.00    +0.000 C 
ATOM      8  H   UNL     1      13.711 -10.416  -5.143  0.00  0.00    +0.000 HD
ATOM      9  H   UNL     1      15.197 -10.358  -4.193  0.00  0.00    +0.000 HD
BRANCH   7  10
ATOM     10  C   UNL     1      13.985 -12.091  -3.827  0.00  0.00    +0.000 C 
ATOM     11  H   UNL     1      14.962 -12.584  -3.862  0.00  0.00    +0.000 HD
ATOM     12  H   UNL     1      13.328 -12.587  -4.548  0.00  0.00    +0.000 HD
ATOM     13  H   UNL     1      13.568 -12.234  -2.825  0.00  0.00    +0.000 HD
ENDBRANCH   7  10
ENDBRANCH   4   7
ENDBRANCH   1   4
BRANCH   1  14
ATOM     14  C   UNL     1      11.128 -10.090  -2.127  0.00  0.00    +0.000 C 
ATOM     15  H   UNL     1      11.752 -10.738  -1.497  0.00  0.00    +0.000 HD
ATOM     16  H   UNL     1      10.267 -10.695  -2.439  0.00  0.00    +0.000 HD
BRANCH  14  17
ATOM     17  C   UNL     1      10.643  -8.895  -1.312  0.00  0.00    +0.000 C 
ATOM     18  H   UNL     1      10.559  -8.005  -1.941  0.00  0.00    +0.000 HD
ATOM     19  H   UNL     1      11.342  -8.678  -0.498  0.00  0.00    +0.000 HD
BRANCH  17  21
ATOM     20  O   UNL     1       8.422  -8.301  -0.593  0.00  0.00    +0.000 OA
ATOM     21  C   UNL     1       9.292  -9.159  -0.700  0.00  0.00    +0.000 C 
ATOM     22  H   UNL     1       9.128 -10.187  -0.332  0.00  0.00    +0.000 HD
ENDBRANCH  17  21
ENDBRANCH  14  17
ENDBRANCH   1  14
TORSDOF 6
ENDMDL
MODEL 8
REMARK VINA RESULT:    -3.547     16.484     17.124
REMARK INTER + INTRA:          -4.792
REMARK INTER:                  -4.491
REMARK INTRA:                  -0.302
REMARK UNBOUND:                -0.105
REMARK  Name = 8130
REMARK  6 active torsions:
REMARK  status: ('A' for Active; 'I' for Inactive)
REMARK    1  A    between atoms: C_2  and  C_3
REMARK    2  A    between atoms: C_2  and  C_4
REMARK    3  A    between atoms: C_3  and  C_5
REMARK    4  A    between atoms: C_4  and  C_6
REMARK    5  A    between atoms: C_5  and  C_7
REMARK    6  A    between atoms: C_6  and  C_8
REMARK                            x       y       z     vdW  Elec       q    Type
REMARK                         _______ _______ _______ _____ _____    ______ ____
ROOT
ATOM      1  C   UNL     1       4.185 -14.028   2.136  0.00  0.00    +0.000 C 
ATOM      2  H   UNL     1       4.310 -14.804   2.900  0.00  0.00    +0.000 HD
ATOM      3  H   UNL     1       3.308 -14.304   1.537  0.00  0.00    +0.000 HD
ENDROOT
BRANCH   1   4
ATOM      4  C   UNL     1       3.942 -12.675   2.808  0.00  0.00    +0.000 C 
ATOM      5  H   UNL     1       4.693 -11.953   2.466  0.00  0.00    +0.000 HD
ATOM      6  H   UNL     1       4.063 -12.780   3.893  0.00  0.00    +0.000 HD
BRANCH   4   7
ATOM      7  C   UNL     1       2.544 -12.142   2.495  0.00  0.00    +0.000 C 
ATOM      8  H   UNL     1       1.928 -12.940   2.065  0.00  0.00    +0.000 HD
ATOM      9  H   UNL     1       2.053 -11.816   3.420  0.00  0.00    +0.000 HD
BRANCH   7  10
ATOM     10  C   UNL     1       2.598 -10.973   1.523  0.00  0.00    +0.000 C 
ATOM     11  H   UNL     1       2.478 -10.027   2.062  0.00  0.00    +0.000 HD
ATOM     12  H   UNL     1       1.799 -11.044   0.779  0.00  0.00    +0.000 HD
ATOM     13  H   UNL     1       3.557 -10.944   0.997  0.00  0.00    +0.000 HD
ENDBRANCH   7  10
ENDBRANCH   4   7
ENDBRANCH   1   4
BRANCH   1  14
ATOM     14  C   UNL     1       5.424 -13.988   1.238  0.00  0.00    +0.000 C 
ATOM     15  H   UNL     1       5.997 -14.915   1.366  0.00  0.00    +0.000 HD
ATOM     16  H   UNL     1       6.079 -13.169   1.563  0.00  0.00    +0.000 HD
BRANCH  14  17
ATOM     17  C   UNL     1       5.069 -13.803  -0.234  0.00  0.00    +0.000 C 
ATOM     18  H   UNL     1       4.031 -14.093  -0.423  0.00  0.00    +0.000 HD
ATOM     19  H   UNL     1       5.720 -14.419  -0.864  0.00  0.00    +0.000 HD
BRANCH  17  21
ATOM     20  O   UNL     1       4.399 -11.764  -1.329  0.00  0.00    +0.000 OA
ATOM     21  C   UNL     1       5.234 -12.369  -0.664  0.00  0.00    +0.000 C 
ATOM     22  H   UNL     1       6.176 -11.884  -0.352  0.00  0.00    +0.000 HD
ENDBRANCH  17  21
ENDBRANCH  14  17
ENDBRANCH   1  14
TORSDOF 6
ENDMDL
MODEL 9
REMARK VINA RESULT:    -3.546     17.598     18.840
REMARK INTER + INTRA:          -4.792
REMARK INTER:                  -4.517
REMARK INTRA:                  -0.274
REMARK UNBOUND:                -0.105
REMARK  Name = 8130
REMARK  6 active torsions:
REMARK  status: ('A' for Active; 'I' for Inactive)
REMARK    1  A    between atoms: C_2  and  C_3
REMARK    2  A    between atoms: C_2  and  C_4
REMARK    3  A    between atoms: C_3  and  C_5
REMARK    4  A    between atoms: C_4  and  C_6
REMARK    5  A    between atoms: C_5  and  C_7
REMARK    6  A    between atoms: C_6  and  C_8
REMARK                            x       y       z     vdW  Elec       q    Type
REMARK                         _______ _______ _______ _____ _____    ______ ____
ROOT
ATOM      1  C   UNL     1       7.714  -1.428  -0.247  0.00  0.00    +0.000 C 
ATOM      2  H   UNL     1       7.367  -0.782  -1.061  0.00  0.00    +0.000 HD
ATOM      3  H   UNL     1       7.628  -0.850   0.682  0.00  0.00    +0.000 HD
ENDROOT
BRANCH   1   4
ATOM      4  C   UNL     1       6.829  -2.672  -0.160  0.00  0.00    +0.000 C 
ATOM      5  H   UNL     1       6.483  -2.808   0.872  0.00  0.00    +0.000 HD
ATOM      6  H   UNL     1       7.419  -3.559  -0.424  0.00  0.00    +0.000 HD
BRANCH   4   7
ATOM      7  C   UNL     1       5.622  -2.563  -1.092  0.00  0.00    +0.000 C 
ATOM      8  H   UNL     1       4.769  -3.100  -0.662  0.00  0.00    +0.000 HD
ATOM      9  H   UNL     1       5.325  -1.512  -1.196  0.00  0.00    +0.000 HD
BRANCH   7  10
ATOM     10  C   UNL     1       5.929  -3.130  -2.470  0.00  0.00    +0.000 C 
ATOM     11  H   UNL     1       5.088  -2.954  -3.148  0.00  0.00    +0.000 HD
ATOM     12  H   UNL     1       6.104  -4.209  -2.419  0.00  0.00    +0.000 HD
ATOM     13  H   UNL     1       6.817  -2.656  -2.900  0.00  0.00    +0.000 HD
ENDBRANCH   7  10
ENDBRANCH   4   7
ENDBRANCH   1   4
BRANCH   1  14
ATOM     14  C   UNL     1       9.179  -1.803  -0.480  0.00  0.00    +0.000 C 
ATOM     15  H   UNL     1       9.329  -2.861  -0.227  0.00  0.00    +0.000 HD
ATOM     16  H   UNL     1       9.814  -1.226   0.205  0.00  0.00    +0.000 HD
BRANCH  14  17
ATOM     17  C   UNL     1       9.622  -1.552  -1.918  0.00  0.00    +0.000 C 
ATOM     18  H   UNL     1      10.598  -1.057  -1.942  0.00  0.00    +0.000 HD
ATOM     19  H   UNL     1       8.898  -0.915  -2.435  0.00  0.00    +0.000 HD
BRANCH  17  21
ATOM     20  O   UNL     1      10.777  -3.213  -3.227  0.00  0.00    +0.000 OA
ATOM     21  C   UNL     1       9.738  -2.839  -2.691  0.00  0.00    +0.000 C 
ATOM     22  H   UNL     1       8.812  -3.437  -2.763  0.00  0.00    +0.000 HD
ENDBRANCH  17  21
ENDBRANCH  14  17
ENDBRANCH   1  14
TORSDOF 6
ENDMDL
MODEL 10
REMARK VINA RESULT:    -3.470     15.507     16.240
REMARK INTER + INTRA:          -4.691
REMARK INTER:                  -4.585
REMARK INTRA:                  -0.105
REMARK UNBOUND:                -0.105
REMARK  Name = 8130
REMARK  6 active torsions:
REMARK  status: ('A' for Active; 'I' for Inactive)
REMARK    1  A    between atoms: C_2  and  C_3
REMARK    2  A    between atoms: C_2  and  C_4
REMARK    3  A    between atoms: C_3  and  C_5
REMARK    4  A    between atoms: C_4  and  C_6
REMARK    5  A    between atoms: C_5  and  C_7
REMARK    6  A    between atoms: C_6  and  C_8
REMARK                            x       y       z     vdW  Elec       q    Type
REMARK                         _______ _______ _______ _____ _____    ______ ____
ROOT
ATOM      1  C   UNL     1      -6.842 -12.757   4.301  0.00  0.00    +0.000 C 
ATOM      2  H   UNL     1      -7.590 -13.516   4.561  0.00  0.00    +0.000 HD
ATOM      3  H   UNL     1      -7.362 -11.792   4.260  0.00  0.00    +0.000 HD
ENDROOT
BRANCH   1   4
ATOM      4  C   UNL     1      -5.757 -12.710   5.379  0.00  0.00    +0.000 C 
ATOM      5  H   UNL     1      -5.728 -11.711   5.829  0.00  0.00    +0.000 HD
ATOM      6  H   UNL     1      -4.777 -12.886   4.918  0.00  0.00    +0.000 HD
BRANCH   4   7
ATOM      7  C   UNL     1      -6.009 -13.753   6.468  0.00  0.00    +0.000 C 
ATOM      8  H   UNL     1      -6.062 -14.752   6.021  0.00  0.00    +0.000 HD
ATOM      9  H   UNL     1      -5.174 -13.759   7.179  0.00  0.00    +0.000 HD
BRANCH   7  10
ATOM     10  C   UNL     1      -7.300 -13.471   7.220  0.00  0.00    +0.000 C 
ATOM     11  H   UNL     1      -7.963 -12.845   6.614  0.00  0.00    +0.000 HD
ATOM     12  H   UNL     1      -7.100 -12.945   8.159  0.00  0.00    +0.000 HD
ATOM     13  H   UNL     1      -7.831 -14.400   7.452  0.00  0.00    +0.000 HD
ENDBRANCH   7  10
ENDBRANCH   4   7
ENDBRANCH   1   4
BRANCH   1  14
ATOM     14  C   UNL     1      -6.246 -13.075   2.927  0.00  0.00    +0.000 C 
ATOM     15  H   UNL     1      -7.057 -13.285   2.218  0.00  0.00    +0.000 HD
ATOM     16  H   UNL     1      -5.647 -13.992   2.996  0.00  0.00    +0.000 HD
BRANCH  14  17
ATOM     17  C   UNL     1      -5.379 -11.939   2.393  0.00  0.00    +0.000 C 
ATOM     18  H   UNL     1      -4.419 -11.904   2.918  0.00  0.00    +0.000 HD
ATOM     19  H   UNL     1      -5.882 -10.976   2.529  0.00  0.00    +0.000 HD
BRANCH  17  21
ATOM     20  O   UNL     1      -4.205 -12.829   0.486  0.00  0.00    +0.000 OA
ATOM     21  C   UNL     1      -5.096 -12.107   0.923  0.00  0.00    +0.000 C 
ATOM     22  H   UNL     1      -5.740 -11.522   0.244  0.00  0.00    +0.000 HD
ENDBRANCH  17  21
ENDBRANCH  14  17
ENDBRANCH   1  14
TORSDOF 6
ENDMDL
