MODEL 1
REMARK VINA RESULT:    -4.593      0.000      0.000
REMARK INTER + INTRA:          -6.416
REMARK INTER:                  -6.280
REMARK INTRA:                  -0.136
REMARK UNBOUND:                -0.212
REMARK  Name = 8094
REMARK  7 active torsions:
REMARK  status: ('A' for Active; 'I' for Inactive)
REMARK    1  A    between atoms: O_1  and  C_9
REMARK    2  A    between atoms: C_3  and  C_4
REMARK    3  A    between atoms: C_3  and  C_5
REMARK    4  A    between atoms: C_4  and  C_6
REMARK    5  A    between atoms: C_5  and  C_7
REMARK    6  A    between atoms: C_6  and  C_8
REMARK    7  A    between atoms: C_7  and  C_9
REMARK                            x       y       z     vdW  Elec       q    Type
REMARK                         _______ _______ _______ _____ _____    ______ ____
ROOT
ATOM      1  C   UNL     1       0.753  -5.448  14.970  0.00  0.00    +0.000 C 
ATOM      2  H   UNL     1       0.253  -5.260  14.013  0.00  0.00    +0.000 HD
ATOM      3  H   UNL     1       1.670  -6.010  14.753  0.00  0.00    +0.000 HD
ENDROOT
BRANCH   1   4
ATOM      4  C   UNL     1      -0.157  -6.286  15.872  0.00  0.00    +0.000 C 
ATOM      5  H   UNL     1      -0.449  -5.690  16.746  0.00  0.00    +0.000 HD
ATOM      6  H   UNL     1      -1.080  -6.524  15.330  0.00  0.00    +0.000 HD
BRANCH   4   7
ATOM      7  C   UNL     1       0.493  -7.585  16.351  0.00  0.00    +0.000 C 
ATOM      8  H   UNL     1       1.481  -7.363  16.774  0.00  0.00    +0.000 HD
ATOM      9  H   UNL     1       0.657  -8.247  15.492  0.00  0.00    +0.000 HD
BRANCH   7  10
ATOM     10  C   UNL     1      -0.331  -8.329  17.390  0.00  0.00    +0.000 C 
ATOM     11  H   UNL     1      -1.398  -8.136  17.238  0.00  0.00    +0.000 HD
ATOM     12  H   UNL     1      -0.067  -8.006  18.402  0.00  0.00    +0.000 HD
ATOM     13  H   UNL     1      -0.166  -9.408  17.320  0.00  0.00    +0.000 HD
ENDBRANCH   7  10
ENDBRANCH   4   7
ENDBRANCH   1   4
BRANCH   1  14
ATOM     14  C   UNL     1       1.114  -4.115  15.635  0.00  0.00    +0.000 C 
ATOM     15  H   UNL     1       0.797  -4.130  16.685  0.00  0.00    +0.000 HD
ATOM     16  H   UNL     1       0.557  -3.303  15.152  0.00  0.00    +0.000 HD
BRANCH  14  17
ATOM     17  C   UNL     1       2.612  -3.814  15.566  0.00  0.00    +0.000 C 
ATOM     18  H   UNL     1       3.139  -4.669  15.127  0.00  0.00    +0.000 HD
ATOM     19  H   UNL     1       2.995  -3.646  16.579  0.00  0.00    +0.000 HD
BRANCH  17  21
ATOM     20  O   UNL     1       4.062  -2.209  14.445  0.00  0.00    +0.000 OA
ATOM     21  C   UNL     1       2.938  -2.594  14.735  0.00  0.00    +0.000 C 
BRANCH  21  22
ATOM     22  O   UNL     1       1.808  -1.967  14.311  0.00  0.00    +0.000 OA
ATOM     23  H   UNL     1       1.404  -2.424  13.543  0.00  0.00    +0.000 HD
ENDBRANCH  21  22
ENDBRANCH  17  21
ENDBRANCH  14  17
ENDBRANCH   1  14
TORSDOF 7
ENDMDL
MODEL 2
REMARK VINA RESULT:    -4.102      3.397      5.329
REMARK INTER + INTRA:          -5.753
REMARK INTER:                  -5.571
REMARK INTRA:                  -0.181
REMARK UNBOUND:                -0.212
REMARK  Name = 8094
REMARK  7 active torsions:
REMARK  status: ('A' for Active; 'I' for Inactive)
REMARK    1  A    between atoms: O_1  and  C_9
REMARK    2  A    between atoms: C_3  and  C_4
REMARK    3  A    between atoms: C_3  and  C_5
REMARK    4  A    between atoms: C_4  and  C_6
REMARK    5  A    between atoms: C_5  and  C_7
REMARK    6  A    between atoms: C_6  and  C_8
REMARK    7  A    between atoms: C_7  and  C_9
REMARK                            x       y       z     vdW  Elec       q    Type
REMARK                         _______ _______ _______ _____ _____    ______ ____
ROOT
ATOM      1  C   UNL     1       0.924  -5.480  14.737  0.00  0.00    +0.000 C 
ATOM      2  H   UNL     1       1.106  -6.559  14.659  0.00  0.00    +0.000 HD
ATOM      3  H   UNL     1       0.163  -5.224  13.991  0.00  0.00    +0.000 HD
ENDROOT
BRANCH   1   4
ATOM      4  C   UNL     1       2.216  -4.717  14.431  0.00  0.00    +0.000 C 
ATOM      5  H   UNL     1       3.063  -5.236  14.898  0.00  0.00    +0.000 HD
ATOM      6  H   UNL     1       2.395  -4.731  13.350  0.00  0.00    +0.000 HD
BRANCH   4   7
ATOM      7  C   UNL     1       2.193  -3.267  14.917  0.00  0.00    +0.000 C 
ATOM      8  H   UNL     1       1.903  -3.242  15.975  0.00  0.00    +0.000 HD
ATOM      9  H   UNL     1       1.425  -2.712  14.365  0.00  0.00    +0.000 HD
BRANCH   7  10
ATOM     10  C   UNL     1       3.525  -2.551  14.756  0.00  0.00    +0.000 C 
ATOM     11  H   UNL     1       3.571  -1.680  15.417  0.00  0.00    +0.000 HD
ATOM     12  H   UNL     1       3.660  -2.205  13.726  0.00  0.00    +0.000 HD
ATOM     13  H   UNL     1       4.357  -3.215  15.007  0.00  0.00    +0.000 HD
ENDBRANCH   7  10
ENDBRANCH   4   7
ENDBRANCH   1   4
BRANCH   1  14
ATOM     14  C   UNL     1       0.403  -5.144  16.139  0.00  0.00    +0.000 C 
ATOM     15  H   UNL     1       0.011  -4.119  16.149  0.00  0.00    +0.000 HD
ATOM     16  H   UNL     1       1.234  -5.167  16.854  0.00  0.00    +0.000 HD
BRANCH  14  17
ATOM     17  C   UNL     1      -0.693  -6.106  16.601  0.00  0.00    +0.000 C 
ATOM     18  H   UNL     1      -1.290  -6.425  15.739  0.00  0.00    +0.000 HD
ATOM     19  H   UNL     1      -1.348  -5.594  17.314  0.00  0.00    +0.000 HD
BRANCH  17  21
ATOM     20  O   UNL     1      -0.599  -8.479  17.146  0.00  0.00    +0.000 OA
ATOM     21  C   UNL     1      -0.151  -7.348  17.273  0.00  0.00    +0.000 C 
BRANCH  21  22
ATOM     22  O   UNL     1       0.937  -7.063  18.036  0.00  0.00    +0.000 OA
ATOM     23  H   UNL     1       1.767  -7.099  17.516  0.00  0.00    +0.000 HD
ENDBRANCH  21  22
ENDBRANCH  17  21
ENDBRANCH  14  17
ENDBRANCH   1  14
TORSDOF 7
ENDMDL
MODEL 3
REMARK VINA RESULT:    -3.972      3.302      4.898
REMARK INTER + INTRA:          -5.577
REMARK INTER:                  -5.397
REMARK INTRA:                  -0.181
REMARK UNBOUND:                -0.212
REMARK  Name = 8094
REMARK  7 active torsions:
REMARK  status: ('A' for Active; 'I' for Inactive)
REMARK    1  A    between atoms: O_1  and  C_9
REMARK    2  A    between atoms: C_3  and  C_4
REMARK    3  A    between atoms: C_3  and  C_5
REMARK    4  A    between atoms: C_4  and  C_6
REMARK    5  A    between atoms: C_5  and  C_7
REMARK    6  A    between atoms: C_6  and  C_8
REMARK    7  A    between atoms: C_7  and  C_9
REMARK                            x       y       z     vdW  Elec       q    Type
REMARK                         _______ _______ _______ _____ _____    ______ ____
ROOT
ATOM      1  C   UNL     1       1.028  -5.379  14.959  0.00  0.00    +0.000 C 
ATOM      2  H   UNL     1       0.017  -5.446  14.539  0.00  0.00    +0.000 HD
ATOM      3  H   UNL     1       1.050  -6.010  15.856  0.00  0.00    +0.000 HD
ENDROOT
BRANCH   1   4
ATOM      4  C   UNL     1       1.330  -3.929  15.346  0.00  0.00    +0.000 C 
ATOM      5  H   UNL     1       1.068  -3.268  14.510  0.00  0.00    +0.000 HD
ATOM      6  H   UNL     1       0.690  -3.641  16.189  0.00  0.00    +0.000 HD
BRANCH   4   7
ATOM      7  C   UNL     1       2.794  -3.695  15.725  0.00  0.00    +0.000 C 
ATOM      8  H   UNL     1       3.350  -4.635  15.624  0.00  0.00    +0.000 HD
ATOM      9  H   UNL     1       2.853  -3.403  16.780  0.00  0.00    +0.000 HD
BRANCH   7  10
ATOM     10  C   UNL     1       3.475  -2.627  14.883  0.00  0.00    +0.000 C 
ATOM     11  H   UNL     1       4.085  -3.092  14.102  0.00  0.00    +0.000 HD
ATOM     12  H   UNL     1       4.128  -2.002  15.499  0.00  0.00    +0.000 HD
ATOM     13  H   UNL     1       2.736  -1.981  14.400  0.00  0.00    +0.000 HD
ENDBRANCH   7  10
ENDBRANCH   4   7
ENDBRANCH   1   4
BRANCH   1  14
ATOM     14  C   UNL     1       2.046  -5.902  13.939  0.00  0.00    +0.000 C 
ATOM     15  H   UNL     1       3.008  -5.397  14.088  0.00  0.00    +0.000 HD
ATOM     16  H   UNL     1       1.714  -5.646  12.926  0.00  0.00    +0.000 HD
BRANCH  14  17
ATOM     17  C   UNL     1       2.250  -7.414  14.040  0.00  0.00    +0.000 C 
ATOM     18  H   UNL     1       1.451  -7.931  13.495  0.00  0.00    +0.000 HD
ATOM     19  H   UNL     1       2.212  -7.716  15.092  0.00  0.00    +0.000 HD
BRANCH  17  21
ATOM     20  O   UNL     1       3.714  -8.720  12.594  0.00  0.00    +0.000 OA
ATOM     21  C   UNL     1       3.572  -7.877  13.469  0.00  0.00    +0.000 C 
BRANCH  21  22
ATOM     22  O   UNL     1       4.615  -7.214  14.035  0.00  0.00    +0.000 OA
ATOM     23  H   UNL     1       4.322  -6.630  14.767  0.00  0.00    +0.000 HD
ENDBRANCH  21  22
ENDBRANCH  17  21
ENDBRANCH  14  17
ENDBRANCH   1  14
TORSDOF 7
ENDMDL
MODEL 4
REMARK VINA RESULT:    -3.963     15.734     16.502
REMARK INTER + INTRA:          -5.565
REMARK INTER:                  -5.418
REMARK INTRA:                  -0.147
REMARK UNBOUND:                -0.212
REMARK  Name = 8094
REMARK  7 active torsions:
REMARK  status: ('A' for Active; 'I' for Inactive)
REMARK    1  A    between atoms: O_1  and  C_9
REMARK    2  A    between atoms: C_3  and  C_4
REMARK    3  A    between atoms: C_3  and  C_5
REMARK    4  A    between atoms: C_4  and  C_6
REMARK    5  A    between atoms: C_5  and  C_7
REMARK    6  A    between atoms: C_6  and  C_8
REMARK    7  A    between atoms: C_7  and  C_9
REMARK                            x       y       z     vdW  Elec       q    Type
REMARK                         _______ _______ _______ _____ _____    ______ ____
ROOT
ATOM      1  C   UNL     1       0.386  11.596  11.417  0.00  0.00    +0.000 C 
ATOM      2  H   UNL     1       0.782  11.959  10.461  0.00  0.00    +0.000 HD
ATOM      3  H   UNL     1       0.727  12.290  12.195  0.00  0.00    +0.000 HD
ENDROOT
BRANCH   1   4
ATOM      4  C   UNL     1       0.934  10.196  11.704  0.00  0.00    +0.000 C 
ATOM      5  H   UNL     1       0.256   9.675  12.391  0.00  0.00    +0.000 HD
ATOM      6  H   UNL     1       0.949   9.617  10.774  0.00  0.00    +0.000 HD
BRANCH   4   7
ATOM      7  C   UNL     1       2.340  10.208  12.309  0.00  0.00    +0.000 C 
ATOM      8  H   UNL     1       2.478   9.309  12.924  0.00  0.00    +0.000 HD
ATOM      9  H   UNL     1       2.439  11.069  12.980  0.00  0.00    +0.000 HD
BRANCH   7  10
ATOM     10  C   UNL     1       3.448  10.268  11.269  0.00  0.00    +0.000 C 
ATOM     11  H   UNL     1       4.386   9.896  11.692  0.00  0.00    +0.000 HD
ATOM     12  H   UNL     1       3.610  11.296  10.931  0.00  0.00    +0.000 HD
ATOM     13  H   UNL     1       3.199   9.655  10.398  0.00  0.00    +0.000 HD
ENDBRANCH   7  10
ENDBRANCH   4   7
ENDBRANCH   1   4
BRANCH   1  14
ATOM     14  C   UNL     1      -1.147  11.591  11.372  0.00  0.00    +0.000 C 
ATOM     15  H   UNL     1      -1.489  12.059  10.441  0.00  0.00    +0.000 HD
ATOM     16  H   UNL     1      -1.539  12.204  12.193  0.00  0.00    +0.000 HD
BRANCH  14  17
ATOM     17  C   UNL     1      -1.729  10.179  11.470  0.00  0.00    +0.000 C 
ATOM     18  H   UNL     1      -1.219   9.626  12.267  0.00  0.00    +0.000 HD
ATOM     19  H   UNL     1      -1.571   9.656  10.521  0.00  0.00    +0.000 HD
BRANCH  17  21
ATOM     20  O   UNL     1      -3.727   9.717  12.785  0.00  0.00    +0.000 OA
ATOM     21  C   UNL     1      -3.211  10.165  11.771  0.00  0.00    +0.000 C 
BRANCH  21  22
ATOM     22  O   UNL     1      -3.925  10.745  10.770  0.00  0.00    +0.000 OA
ATOM     23  H   UNL     1      -3.470  11.536  10.409  0.00  0.00    +0.000 HD
ENDBRANCH  21  22
ENDBRANCH  17  21
ENDBRANCH  14  17
ENDBRANCH   1  14
TORSDOF 7
ENDMDL
MODEL 5
REMARK VINA RESULT:    -3.944     20.495     21.340
REMARK INTER + INTRA:          -5.540
REMARK INTER:                  -5.403
REMARK INTRA:                  -0.136
REMARK UNBOUND:                -0.212
REMARK  Name = 8094
REMARK  7 active torsions:
REMARK  status: ('A' for Active; 'I' for Inactive)
REMARK    1  A    between atoms: O_1  and  C_9
REMARK    2  A    between atoms: C_3  and  C_4
REMARK    3  A    between atoms: C_3  and  C_5
REMARK    4  A    between atoms: C_4  and  C_6
REMARK    5  A    between atoms: C_5  and  C_7
REMARK    6  A    between atoms: C_6  and  C_8
REMARK    7  A    between atoms: C_7  and  C_9
REMARK                            x       y       z     vdW  Elec       q    Type
REMARK                         _______ _______ _______ _____ _____    ______ ____
ROOT
ATOM      1  C   UNL     1      10.811  -9.875  -1.555  0.00  0.00    +0.000 C 
ATOM      2  H   UNL     1      10.072 -10.520  -2.047  0.00  0.00    +0.000 HD
ATOM      3  H   UNL     1      11.290 -10.470  -0.768  0.00  0.00    +0.000 HD
ENDROOT
BRANCH   1   4
ATOM      4  C   UNL     1      10.105  -8.670  -0.927  0.00  0.00    +0.000 C 
ATOM      5  H   UNL     1      10.654  -8.355  -0.031  0.00  0.00    +0.000 HD
ATOM      6  H   UNL     1      10.136  -7.829  -1.629  0.00  0.00    +0.000 HD
BRANCH   4   7
ATOM      7  C   UNL     1       8.650  -8.951  -0.544  0.00  0.00    +0.000 C 
ATOM      8  H   UNL     1       7.984  -8.413  -1.230  0.00  0.00    +0.000 HD
ATOM      9  H   UNL     1       8.457  -8.557   0.461  0.00  0.00    +0.000 HD
BRANCH   7  10
ATOM     10  C   UNL     1       8.291 -10.429  -0.568  0.00  0.00    +0.000 C 
ATOM     11  H   UNL     1       7.695 -10.660  -1.457  0.00  0.00    +0.000 HD
ATOM     12  H   UNL     1       7.706 -10.702   0.315  0.00  0.00    +0.000 HD
ATOM     13  H   UNL     1       9.191 -11.049  -0.590  0.00  0.00    +0.000 HD
ENDBRANCH   7  10
ENDBRANCH   4   7
ENDBRANCH   1   4
BRANCH   1  14
ATOM     14  C   UNL     1      11.865  -9.428  -2.574  0.00  0.00    +0.000 C 
ATOM     15  H   UNL     1      12.731  -9.008  -2.047  0.00  0.00    +0.000 HD
ATOM     16  H   UNL     1      11.456  -8.620  -3.194  0.00  0.00    +0.000 HD
BRANCH  14  17
ATOM     17  C   UNL     1      12.331 -10.573  -3.474  0.00  0.00    +0.000 C 
ATOM     18  H   UNL     1      11.960 -10.414  -4.494  0.00  0.00    +0.000 HD
ATOM     19  H   UNL     1      11.927 -11.519  -3.096  0.00  0.00    +0.000 HD
BRANCH  17  21
ATOM     20  O   UNL     1      14.455 -11.748  -3.686  0.00  0.00    +0.000 OA
ATOM     21  C   UNL     1      13.836 -10.702  -3.545  0.00  0.00    +0.000 C 
BRANCH  21  22
ATOM     22  O   UNL     1      14.442  -9.489  -3.456  0.00  0.00    +0.000 OA
ATOM     23  H   UNL     1      15.012  -9.423  -2.660  0.00  0.00    +0.000 HD
ENDBRANCH  21  22
ENDBRANCH  17  21
ENDBRANCH  14  17
ENDBRANCH   1  14
TORSDOF 7
ENDMDL
MODEL 6
REMARK VINA RESULT:    -3.885     23.339     25.395
REMARK INTER + INTRA:          -5.460
REMARK INTER:                  -5.361
REMARK INTRA:                  -0.099
REMARK UNBOUND:                -0.212
REMARK  Name = 8094
REMARK  7 active torsions:
REMARK  status: ('A' for Active; 'I' for Inactive)
REMARK    1  A    between atoms: O_1  and  C_9
REMARK    2  A    between atoms: C_3  and  C_4
REMARK    3  A    between atoms: C_3  and  C_5
REMARK    4  A    between atoms: C_4  and  C_6
REMARK    5  A    between atoms: C_5  and  C_7
REMARK    6  A    between atoms: C_6  and  C_8
REMARK    7  A    between atoms: C_7  and  C_9
REMARK                            x       y       z     vdW  Elec       q    Type
REMARK                         _______ _______ _______ _____ _____    ______ ____
ROOT
ATOM      1  C   UNL     1       7.639  12.907  -0.886  0.00  0.00    +0.000 C 
ATOM      2  H   UNL     1       8.226  12.107  -0.417  0.00  0.00    +0.000 HD
ATOM      3  H   UNL     1       8.089  13.860  -0.585  0.00  0.00    +0.000 HD
ENDROOT
BRANCH   1   4
ATOM      4  C   UNL     1       6.193  12.844  -0.387  0.00  0.00    +0.000 C 
ATOM      5  H   UNL     1       5.950  13.777   0.137  0.00  0.00    +0.000 HD
ATOM      6  H   UNL     1       5.518  12.781  -1.248  0.00  0.00    +0.000 HD
BRANCH   4   7
ATOM      7  C   UNL     1       5.924  11.664   0.549  0.00  0.00    +0.000 C 
ATOM      8  H   UNL     1       6.721  10.919   0.432  0.00  0.00    +0.000 HD
ATOM      9  H   UNL     1       4.987  11.175   0.256  0.00  0.00    +0.000 HD
BRANCH   7  10
ATOM     10  C   UNL     1       5.832  12.061   2.014  0.00  0.00    +0.000 C 
ATOM     11  H   UNL     1       4.845  12.478   2.234  0.00  0.00    +0.000 HD
ATOM     12  H   UNL     1       6.585  12.815   2.262  0.00  0.00    +0.000 HD
ATOM     13  H   UNL     1       5.988  11.194   2.663  0.00  0.00    +0.000 HD
ENDBRANCH   7  10
ENDBRANCH   4   7
ENDBRANCH   1   4
BRANCH   1  14
ATOM     14  C   UNL     1       7.704  12.767  -2.411  0.00  0.00    +0.000 C 
ATOM     15  H   UNL     1       7.798  13.760  -2.867  0.00  0.00    +0.000 HD
ATOM     16  H   UNL     1       6.762  12.343  -2.780  0.00  0.00    +0.000 HD
BRANCH  14  17
ATOM     17  C   UNL     1       8.870  11.891  -2.869  0.00  0.00    +0.000 C 
ATOM     18  H   UNL     1       8.533  10.853  -2.970  0.00  0.00    +0.000 HD
ATOM     19  H   UNL     1       9.669  11.930  -2.121  0.00  0.00    +0.000 HD
BRANCH  17  21
ATOM     20  O   UNL     1       8.811  12.704  -5.165  0.00  0.00    +0.000 OA
ATOM     21  C   UNL     1       9.453  12.319  -4.197  0.00  0.00    +0.000 C 
BRANCH  21  22
ATOM     22  O   UNL     1      10.810  12.251  -4.188  0.00  0.00    +0.000 OA
ATOM     23  H   UNL     1      11.172  12.316  -3.279  0.00  0.00    +0.000 HD
ENDBRANCH  21  22
ENDBRANCH  17  21
ENDBRANCH  14  17
ENDBRANCH   1  14
TORSDOF 7
ENDMDL
MODEL 7
REMARK VINA RESULT:    -3.682     28.374     29.484
REMARK INTER + INTRA:          -5.185
REMARK INTER:                  -4.791
REMARK INTRA:                  -0.395
REMARK UNBOUND:                -0.212
REMARK  Name = 8094
REMARK  7 active torsions:
REMARK  status: ('A' for Active; 'I' for Inactive)
REMARK    1  A    between atoms: O_1  and  C_9
REMARK    2  A    between atoms: C_3  and  C_4
REMARK    3  A    between atoms: C_3  and  C_5
REMARK    4  A    between atoms: C_4  and  C_6
REMARK    5  A    between atoms: C_5  and  C_7
REMARK    6  A    between atoms: C_6  and  C_8
REMARK    7  A    between atoms: C_7  and  C_9
REMARK                            x       y       z     vdW  Elec       q    Type
REMARK                         _______ _______ _______ _____ _____    ______ ____
ROOT
ATOM      1  C   UNL     1       9.010  14.564  -7.327  0.00  0.00    +0.000 C 
ATOM      2  H   UNL     1       9.567  15.378  -7.806  0.00  0.00    +0.000 HD
ATOM      3  H   UNL     1       9.080  14.714  -6.243  0.00  0.00    +0.000 HD
ENDROOT
BRANCH   1   4
ATOM      4  C   UNL     1       9.642  13.220  -7.698  0.00  0.00    +0.000 C 
ATOM      5  H   UNL     1       9.107  12.792  -8.556  0.00  0.00    +0.000 HD
ATOM      6  H   UNL     1      10.676  13.385  -8.022  0.00  0.00    +0.000 HD
BRANCH   4   7
ATOM      7  C   UNL     1       9.632  12.207  -6.551  0.00  0.00    +0.000 C 
ATOM      8  H   UNL     1      10.243  11.339  -6.828  0.00  0.00    +0.000 HD
ATOM      9  H   UNL     1       8.610  11.841  -6.400  0.00  0.00    +0.000 HD
BRANCH   7  10
ATOM     10  C   UNL     1      10.148  12.773  -5.238  0.00  0.00    +0.000 C 
ATOM     11  H   UNL     1      10.953  12.145  -4.843  0.00  0.00    +0.000 HD
ATOM     12  H   UNL     1       9.350  12.816  -4.490  0.00  0.00    +0.000 HD
ATOM     13  H   UNL     1      10.543  13.784  -5.377  0.00  0.00    +0.000 HD
ENDBRANCH   7  10
ENDBRANCH   4   7
ENDBRANCH   1   4
BRANCH   1  14
ATOM     14  C   UNL     1       7.540  14.620  -7.758  0.00  0.00    +0.000 C 
ATOM     15  H   UNL     1       7.270  13.687  -8.269  0.00  0.00    +0.000 HD
ATOM     16  H   UNL     1       7.403  15.426  -8.489  0.00  0.00    +0.000 HD
BRANCH  14  17
ATOM     17  C   UNL     1       6.593  14.839  -6.577  0.00  0.00    +0.000 C 
ATOM     18  H   UNL     1       5.610  15.156  -6.947  0.00  0.00    +0.000 HD
ATOM     19  H   UNL     1       6.996  15.625  -5.930  0.00  0.00    +0.000 HD
BRANCH  17  21
ATOM     20  O   UNL     1       6.823  13.428  -4.604  0.00  0.00    +0.000 OA
ATOM     21  C   UNL     1       6.392  13.598  -5.736  0.00  0.00    +0.000 C 
BRANCH  21  22
ATOM     22  O   UNL     1       5.635  12.676  -6.387  0.00  0.00    +0.000 OA
ATOM     23  H   UNL     1       5.337  13.001  -7.263  0.00  0.00    +0.000 HD
ENDBRANCH  21  22
ENDBRANCH  17  21
ENDBRANCH  14  17
ENDBRANCH   1  14
TORSDOF 7
ENDMDL
MODEL 8
REMARK VINA RESULT:    -3.669     16.238     17.090
REMARK INTER + INTRA:          -5.168
REMARK INTER:                  -5.060
REMARK INTRA:                  -0.108
REMARK UNBOUND:                -0.212
REMARK  Name = 8094
REMARK  7 active torsions:
REMARK  status: ('A' for Active; 'I' for Inactive)
REMARK    1  A    between atoms: O_1  and  C_9
REMARK    2  A    between atoms: C_3  and  C_4
REMARK    3  A    between atoms: C_3  and  C_5
REMARK    4  A    between atoms: C_4  and  C_6
REMARK    5  A    between atoms: C_5  and  C_7
REMARK    6  A    between atoms: C_6  and  C_8
REMARK    7  A    between atoms: C_7  and  C_9
REMARK                            x       y       z     vdW  Elec       q    Type
REMARK                         _______ _______ _______ _____ _____    ______ ____
ROOT
ATOM      1  C   UNL     1      -8.812   7.818  20.270  0.00  0.00    +0.000 C 
ATOM      2  H   UNL     1      -8.453   8.113  21.263  0.00  0.00    +0.000 HD
ATOM      3  H   UNL     1      -9.886   8.038  20.233  0.00  0.00    +0.000 HD
ENDROOT
BRANCH   1   4
ATOM      4  C   UNL     1      -8.592   6.316  20.069  0.00  0.00    +0.000 C 
ATOM      5  H   UNL     1      -9.450   5.893  19.532  0.00  0.00    +0.000 HD
ATOM      6  H   UNL     1      -7.714   6.163  19.431  0.00  0.00    +0.000 HD
BRANCH   4   7
ATOM      7  C   UNL     1      -8.399   5.550  21.379  0.00  0.00    +0.000 C 
ATOM      8  H   UNL     1      -9.337   5.048  21.648  0.00  0.00    +0.000 HD
ATOM      9  H   UNL     1      -8.178   6.260  22.185  0.00  0.00    +0.000 HD
BRANCH   7  10
ATOM     10  C   UNL     1      -7.287   4.515  21.320  0.00  0.00    +0.000 C 
ATOM     11  H   UNL     1      -6.519   4.824  20.604  0.00  0.00    +0.000 HD
ATOM     12  H   UNL     1      -7.676   3.542  21.005  0.00  0.00    +0.000 HD
ATOM     13  H   UNL     1      -6.813   4.395  22.298  0.00  0.00    +0.000 HD
ENDBRANCH   7  10
ENDBRANCH   4   7
ENDBRANCH   1   4
BRANCH   1  14
ATOM     14  C   UNL     1      -8.084   8.632  19.194  0.00  0.00    +0.000 C 
ATOM     15  H   UNL     1      -7.372   7.987  18.665  0.00  0.00    +0.000 HD
ATOM     16  H   UNL     1      -7.494   9.423  19.671  0.00  0.00    +0.000 HD
BRANCH  14  17
ATOM     17  C   UNL     1      -9.047   9.255  18.182  0.00  0.00    +0.000 C 
ATOM     18  H   UNL     1     -10.077   8.976  18.434  0.00  0.00    +0.000 HD
ATOM     19  H   UNL     1      -8.814   8.877  17.180  0.00  0.00    +0.000 HD
BRANCH  17  21
ATOM     20  O   UNL     1      -8.901  11.501  19.115  0.00  0.00    +0.000 OA
ATOM     21  C   UNL     1      -8.973  10.765  18.141  0.00  0.00    +0.000 C 
BRANCH  21  22
ATOM     22  O   UNL     1      -8.971  11.226  16.862  0.00  0.00    +0.000 OA
ATOM     23  H   UNL     1      -9.703  10.841  16.334  0.00  0.00    +0.000 HD
ENDBRANCH  21  22
ENDBRANCH  17  21
ENDBRANCH  14  17
ENDBRANCH   1  14
TORSDOF 7
ENDMDL
MODEL 9
REMARK VINA RESULT:    -3.614      3.361      4.254
REMARK INTER + INTRA:          -5.094
REMARK INTER:                  -4.783
REMARK INTRA:                  -0.310
REMARK UNBOUND:                -0.212
REMARK  Name = 8094
REMARK  7 active torsions:
REMARK  status: ('A' for Active; 'I' for Inactive)
REMARK    1  A    between atoms: O_1  and  C_9
REMARK    2  A    between atoms: C_3  and  C_4
REMARK    3  A    between atoms: C_3  and  C_5
REMARK    4  A    between atoms: C_4  and  C_6
REMARK    5  A    between atoms: C_5  and  C_7
REMARK    6  A    between atoms: C_6  and  C_8
REMARK    7  A    between atoms: C_7  and  C_9
REMARK                            x       y       z     vdW  Elec       q    Type
REMARK                         _______ _______ _______ _____ _____    ______ ____
ROOT
ATOM      1  C   UNL     1       3.021  -5.093  15.202  0.00  0.00    +0.000 C 
ATOM      2  H   UNL     1       3.688  -4.323  14.798  0.00  0.00    +0.000 HD
ATOM      3  H   UNL     1       3.061  -5.018  16.296  0.00  0.00    +0.000 HD
ENDROOT
BRANCH   1   4
ATOM      4  C   UNL     1       3.509  -6.477  14.768  0.00  0.00    +0.000 C 
ATOM      5  H   UNL     1       4.495  -6.382  14.296  0.00  0.00    +0.000 HD
ATOM      6  H   UNL     1       3.644  -7.107  15.655  0.00  0.00    +0.000 HD
BRANCH   4   7
ATOM      7  C   UNL     1       2.559  -7.178  13.795  0.00  0.00    +0.000 C 
ATOM      8  H   UNL     1       2.193  -6.452  13.058  0.00  0.00    +0.000 HD
ATOM      9  H   UNL     1       1.682  -7.543  14.343  0.00  0.00    +0.000 HD
BRANCH   7  10
ATOM     10  C   UNL     1       3.196  -8.346  13.059  0.00  0.00    +0.000 C 
ATOM     11  H   UNL     1       4.267  -8.398  13.282  0.00  0.00    +0.000 HD
ATOM     12  H   UNL     1       3.078  -8.237  11.977  0.00  0.00    +0.000 HD
ATOM     13  H   UNL     1       2.739  -9.293  13.360  0.00  0.00    +0.000 HD
ENDBRANCH   7  10
ENDBRANCH   4   7
ENDBRANCH   1   4
BRANCH   1  14
ATOM     14  C   UNL     1       1.587  -4.838  14.723  0.00  0.00    +0.000 C 
ATOM     15  H   UNL     1       1.278  -5.641  14.044  0.00  0.00    +0.000 HD
ATOM     16  H   UNL     1       1.556  -3.908  14.142  0.00  0.00    +0.000 HD
BRANCH  14  17
ATOM     17  C   UNL     1       0.591  -4.747  15.881  0.00  0.00    +0.000 C 
ATOM     18  H   UNL     1      -0.292  -4.181  15.563  0.00  0.00    +0.000 HD
ATOM     19  H   UNL     1       1.060  -4.225  16.722  0.00  0.00    +0.000 HD
BRANCH  17  21
ATOM     20  O   UNL     1       0.525  -6.670  17.376  0.00  0.00    +0.000 OA
ATOM     21  C   UNL     1       0.123  -6.098  16.372  0.00  0.00    +0.000 C 
BRANCH  21  22
ATOM     22  O   UNL     1      -0.841  -6.612  15.564  0.00  0.00    +0.000 OA
ATOM     23  H   UNL     1      -0.519  -6.739  14.646  0.00  0.00    +0.000 HD
ENDBRANCH  21  22
ENDBRANCH  17  21
ENDBRANCH  14  17
ENDBRANCH   1  14
TORSDOF 7
ENDMDL
MODEL 10
REMARK VINA RESULT:    -3.523     21.530     22.492
REMARK INTER + INTRA:          -4.970
REMARK INTER:                  -4.758
REMARK INTRA:                  -0.212
REMARK UNBOUND:                -0.212
REMARK  Name = 8094
REMARK  7 active torsions:
REMARK  status: ('A' for Active; 'I' for Inactive)
REMARK    1  A    between atoms: O_1  and  C_9
REMARK    2  A    between atoms: C_3  and  C_4
REMARK    3  A    between atoms: C_3  and  C_5
REMARK    4  A    between atoms: C_4  and  C_6
REMARK    5  A    between atoms: C_5  and  C_7
REMARK    6  A    between atoms: C_6  and  C_8
REMARK    7  A    between atoms: C_7  and  C_9
REMARK                            x       y       z     vdW  Elec       q    Type
REMARK                         _______ _______ _______ _____ _____    ______ ____
ROOT
ATOM      1  C   UNL     1      11.370 -10.725  -2.854  0.00  0.00    +0.000 C 
ATOM      2  H   UNL     1      10.315 -10.971  -3.025  0.00  0.00    +0.000 HD
ATOM      3  H   UNL     1      11.769 -11.473  -2.158  0.00  0.00    +0.000 HD
ENDROOT
BRANCH   1   4
ATOM      4  C   UNL     1      11.479  -9.334  -2.225  0.00  0.00    +0.000 C 
ATOM      5  H   UNL     1      12.505  -9.176  -1.869  0.00  0.00    +0.000 HD
ATOM      6  H   UNL     1      11.291  -8.576  -2.994  0.00  0.00    +0.000 HD
BRANCH   4   7
ATOM      7  C   UNL     1      10.511  -9.117  -1.061  0.00  0.00    +0.000 C 
ATOM      8  H   UNL     1      11.034  -9.299  -0.114  0.00  0.00    +0.000 HD
ATOM      9  H   UNL     1       9.700  -9.853  -1.121  0.00  0.00    +0.000 HD
BRANCH   7  10
ATOM     10  C   UNL     1       9.904  -7.722  -1.027  0.00  0.00    +0.000 C 
ATOM     11  H   UNL     1      10.104  -7.199  -1.967  0.00  0.00    +0.000 HD
ATOM     12  H   UNL     1      10.330  -7.131  -0.210  0.00  0.00    +0.000 HD
ATOM     13  H   UNL     1       8.821  -7.771  -0.887  0.00  0.00    +0.000 HD
ENDBRANCH   7  10
ENDBRANCH   4   7
ENDBRANCH   1   4
BRANCH   1  14
ATOM     14  C   UNL     1      12.139 -10.795  -4.178  0.00  0.00    +0.000 C 
ATOM     15  H   UNL     1      11.487 -11.201  -4.961  0.00  0.00    +0.000 HD
ATOM     16  H   UNL     1      12.978 -11.494  -4.078  0.00  0.00    +0.000 HD
BRANCH  14  17
ATOM     17  C   UNL     1      12.666  -9.429  -4.620  0.00  0.00    +0.000 C 
ATOM     18  H   UNL     1      12.366  -8.666  -3.892  0.00  0.00    +0.000 HD
ATOM     19  H   UNL     1      12.237  -9.173  -5.595  0.00  0.00    +0.000 HD
BRANCH  17  21
ATOM     20  O   UNL     1      14.800  -8.695  -5.538  0.00  0.00    +0.000 OA
ATOM     21  C   UNL     1      14.172  -9.383  -4.745  0.00  0.00    +0.000 C 
BRANCH  21  22
ATOM     22  O   UNL     1      14.769 -10.195  -3.834  0.00  0.00    +0.000 OA
ATOM     23  H   UNL     1      15.532 -10.677  -4.220  0.00  0.00    +0.000 HD
ENDBRANCH  21  22
ENDBRANCH  17  21
ENDBRANCH  14  17
ENDBRANCH   1  14
TORSDOF 7
ENDMDL
