MODEL 1
REMARK VINA RESULT:    -4.529      0.000      0.000
REMARK INTER + INTRA:          -5.942
REMARK INTER:                  -5.833
REMARK INTRA:                  -0.110
REMARK UNBOUND:                -0.089
REMARK  Name = 8892
REMARK  6 active torsions:
REMARK  status: ('A' for Active; 'I' for Inactive)
REMARK    1  A    between atoms: O_1  and  C_8
REMARK    2  A    between atoms: C_3  and  C_4
REMARK    3  A    between atoms: C_3  and  C_5
REMARK    4  A    between atoms: C_4  and  C_6
REMARK    5  A    between atoms: C_5  and  C_7
REMARK    6  A    between atoms: C_6  and  C_8
REMARK                            x       y       z     vdW  Elec       q    Type
REMARK                         _______ _______ _______ _____ _____    ______ ____
ROOT
ATOM      1  C   UNL     1       0.344  -5.209  16.231  0.00  0.00    +0.000 C 
ATOM      2  H   UNL     1      -0.501  -4.642  16.646  0.00  0.00    +0.000 HD
ATOM      3  H   UNL     1       1.057  -5.346  17.054  0.00  0.00    +0.000 HD
ENDROOT
BRANCH   1   4
ATOM      4  C   UNL     1       1.014  -4.365  15.144  0.00  0.00    +0.000 C 
ATOM      5  H   UNL     1       1.158  -4.981  14.247  0.00  0.00    +0.000 HD
ATOM      6  H   UNL     1       0.334  -3.555  14.855  0.00  0.00    +0.000 HD
BRANCH   4   7
ATOM      7  C   UNL     1       2.359  -3.778  15.572  0.00  0.00    +0.000 C 
ATOM      8  H   UNL     1       3.147  -4.529  15.449  0.00  0.00    +0.000 HD
ATOM      9  H   UNL     1       2.312  -3.478  16.624  0.00  0.00    +0.000 HD
BRANCH   7  11
ATOM     10  O   UNL     1       3.867  -2.212  14.475  0.00  0.00    +0.000 OA
ATOM     11  C   UNL     1       2.729  -2.561  14.754  0.00  0.00    +0.000 C 
BRANCH  11  12
ATOM     12  O   UNL     1       1.624  -1.876  14.358  0.00  0.00    +0.000 OA
ATOM     13  H   UNL     1       1.032  -1.669  15.113  0.00  0.00    +0.000 HD
ENDBRANCH  11  12
ENDBRANCH   7  11
ENDBRANCH   4   7
ENDBRANCH   1   4
BRANCH   1  14
ATOM     14  C   UNL     1      -0.156  -6.585  15.789  0.00  0.00    +0.000 C 
ATOM     15  H   UNL     1      -0.905  -6.460  14.997  0.00  0.00    +0.000 HD
ATOM     16  H   UNL     1      -0.663  -7.073  16.630  0.00  0.00    +0.000 HD
BRANCH  14  17
ATOM     17  C   UNL     1       0.948  -7.498  15.278  0.00  0.00    +0.000 C 
ATOM     18  H   UNL     1       1.930  -7.058  15.480  0.00  0.00    +0.000 HD
ATOM     19  H   UNL     1       0.905  -8.475  15.770  0.00  0.00    +0.000 HD
ATOM     20  H   UNL     1       0.858  -7.652  14.199  0.00  0.00    +0.000 HD
ENDBRANCH  14  17
ENDBRANCH   1  14
TORSDOF 6
ENDMDL
MODEL 2
REMARK VINA RESULT:    -4.243     17.249     18.097
REMARK INTER + INTRA:          -5.573
REMARK INTER:                  -5.484
REMARK INTRA:                  -0.088
REMARK UNBOUND:                -0.089
REMARK  Name = 8892
REMARK  6 active torsions:
REMARK  status: ('A' for Active; 'I' for Inactive)
REMARK    1  A    between atoms: O_1  and  C_8
REMARK    2  A    between atoms: C_3  and  C_4
REMARK    3  A    between atoms: C_3  and  C_5
REMARK    4  A    between atoms: C_4  and  C_6
REMARK    5  A    between atoms: C_5  and  C_7
REMARK    6  A    between atoms: C_6  and  C_8
REMARK                            x       y       z     vdW  Elec       q    Type
REMARK                         _______ _______ _______ _____ _____    ______ ____
ROOT
ATOM      1  C   UNL     1       4.159  -2.468  -1.497  0.00  0.00    +0.000 C 
ATOM      2  H   UNL     1       3.494  -2.747  -2.326  0.00  0.00    +0.000 HD
ATOM      3  H   UNL     1       4.224  -1.373  -1.510  0.00  0.00    +0.000 HD
ENDROOT
BRANCH   1   4
ATOM      4  C   UNL     1       5.552  -3.041  -1.771  0.00  0.00    +0.000 C 
ATOM      5  H   UNL     1       6.310  -2.352  -1.376  0.00  0.00    +0.000 HD
ATOM      6  H   UNL     1       5.666  -3.978  -1.213  0.00  0.00    +0.000 HD
BRANCH   4   7
ATOM      7  C   UNL     1       5.826  -3.290  -3.255  0.00  0.00    +0.000 C 
ATOM      8  H   UNL     1       5.052  -2.807  -3.861  0.00  0.00    +0.000 HD
ATOM      9  H   UNL     1       5.817  -4.367  -3.455  0.00  0.00    +0.000 HD
BRANCH   7  11
ATOM     10  O   UNL     1       8.128  -2.562  -2.938  0.00  0.00    +0.000 OA
ATOM     11  C   UNL     1       7.172  -2.747  -3.678  0.00  0.00    +0.000 C 
BRANCH  11  12
ATOM     12  O   UNL     1       7.199  -2.473  -5.009  0.00  0.00    +0.000 OA
ATOM     13  H   UNL     1       7.952  -2.916  -5.458  0.00  0.00    +0.000 HD
ENDBRANCH  11  12
ENDBRANCH   7  11
ENDBRANCH   4   7
ENDBRANCH   1   4
BRANCH   1  14
ATOM     14  C   UNL     1       3.512  -2.900  -0.180  0.00  0.00    +0.000 C 
ATOM     15  H   UNL     1       2.579  -3.435  -0.394  0.00  0.00    +0.000 HD
ATOM     16  H   UNL     1       3.242  -2.009   0.399  0.00  0.00    +0.000 HD
BRANCH  14  17
ATOM     17  C   UNL     1       4.403  -3.792   0.671  0.00  0.00    +0.000 C 
ATOM     18  H   UNL     1       4.061  -3.790   1.711  0.00  0.00    +0.000 HD
ATOM     19  H   UNL     1       4.384  -4.824   0.308  0.00  0.00    +0.000 HD
ATOM     20  H   UNL     1       5.439  -3.440   0.651  0.00  0.00    +0.000 HD
ENDBRANCH  14  17
ENDBRANCH   1  14
TORSDOF 6
ENDMDL
MODEL 3
REMARK VINA RESULT:    -3.969     15.607     16.629
REMARK INTER + INTRA:          -5.218
REMARK INTER:                  -5.035
REMARK INTRA:                  -0.183
REMARK UNBOUND:                -0.089
REMARK  Name = 8892
REMARK  6 active torsions:
REMARK  status: ('A' for Active; 'I' for Inactive)
REMARK    1  A    between atoms: O_1  and  C_8
REMARK    2  A    between atoms: C_3  and  C_4
REMARK    3  A    between atoms: C_3  and  C_5
REMARK    4  A    between atoms: C_4  and  C_6
REMARK    5  A    between atoms: C_5  and  C_7
REMARK    6  A    between atoms: C_6  and  C_8
REMARK                            x       y       z     vdW  Elec       q    Type
REMARK                         _______ _______ _______ _____ _____    ______ ____
ROOT
ATOM      1  C   UNL     1       5.107  -3.143  -1.984  0.00  0.00    +0.000 C 
ATOM      2  H   UNL     1       4.919  -4.096  -1.470  0.00  0.00    +0.000 HD
ATOM      3  H   UNL     1       4.849  -3.305  -3.038  0.00  0.00    +0.000 HD
ENDROOT
BRANCH   1   4
ATOM      4  C   UNL     1       6.601  -2.824  -1.892  0.00  0.00    +0.000 C 
ATOM      5  H   UNL     1       7.178  -3.742  -2.060  0.00  0.00    +0.000 HD
ATOM      6  H   UNL     1       6.867  -2.140  -2.708  0.00  0.00    +0.000 HD
BRANCH   4   7
ATOM      7  C   UNL     1       7.011  -2.209  -0.554  0.00  0.00    +0.000 C 
ATOM      8  H   UNL     1       6.321  -1.401  -0.290  0.00  0.00    +0.000 HD
ATOM      9  H   UNL     1       8.026  -1.803  -0.630  0.00  0.00    +0.000 HD
BRANCH   7  11
ATOM     10  O   UNL     1       7.673  -4.251   0.597  0.00  0.00    +0.000 OA
ATOM     11  C   UNL     1       7.000  -3.230   0.562  0.00  0.00    +0.000 C 
BRANCH  11  12
ATOM     12  O   UNL     1       6.128  -2.881   1.544  0.00  0.00    +0.000 OA
ATOM     13  H   UNL     1       5.304  -3.412   1.507  0.00  0.00    +0.000 HD
ENDBRANCH  11  12
ENDBRANCH   7  11
ENDBRANCH   4   7
ENDBRANCH   1   4
BRANCH   1  14
ATOM     14  C   UNL     1       4.166  -2.081  -1.411  0.00  0.00    +0.000 C 
ATOM     15  H   UNL     1       4.048  -1.271  -2.142  0.00  0.00    +0.000 HD
ATOM     16  H   UNL     1       4.622  -1.638  -0.518  0.00  0.00    +0.000 HD
BRANCH  14  17
ATOM     17  C   UNL     1       2.790  -2.619  -1.051  0.00  0.00    +0.000 C 
ATOM     18  H   UNL     1       2.153  -2.663  -1.940  0.00  0.00    +0.000 HD
ATOM     19  H   UNL     1       2.862  -3.629  -0.633  0.00  0.00    +0.000 HD
ATOM     20  H   UNL     1       2.302  -1.976  -0.313  0.00  0.00    +0.000 HD
ENDBRANCH  14  17
ENDBRANCH   1  14
TORSDOF 6
ENDMDL
MODEL 4
REMARK VINA RESULT:    -3.939     18.829     19.506
REMARK INTER + INTRA:          -5.180
REMARK INTER:                  -5.043
REMARK INTRA:                  -0.137
REMARK UNBOUND:                -0.089
REMARK  Name = 8892
REMARK  6 active torsions:
REMARK  status: ('A' for Active; 'I' for Inactive)
REMARK    1  A    between atoms: O_1  and  C_8
REMARK    2  A    between atoms: C_3  and  C_4
REMARK    3  A    between atoms: C_3  and  C_5
REMARK    4  A    between atoms: C_4  and  C_6
REMARK    5  A    between atoms: C_5  and  C_7
REMARK    6  A    between atoms: C_6  and  C_8
REMARK                            x       y       z     vdW  Elec       q    Type
REMARK                         _______ _______ _______ _____ _____    ______ ____
ROOT
ATOM      1  C   UNL     1      10.812  -8.900  -1.444  0.00  0.00    +0.000 C 
ATOM      2  H   UNL     1      11.681  -8.332  -1.084  0.00  0.00    +0.000 HD
ATOM      3  H   UNL     1      10.221  -8.206  -2.055  0.00  0.00    +0.000 HD
ENDROOT
BRANCH   1   4
ATOM      4  C   UNL     1       9.969  -9.324  -0.239  0.00  0.00    +0.000 C 
ATOM      5  H   UNL     1      10.350 -10.276   0.151  0.00  0.00    +0.000 HD
ATOM      6  H   UNL     1      10.102  -8.587   0.563  0.00  0.00    +0.000 HD
BRANCH   4   7
ATOM      7  C   UNL     1       8.481  -9.471  -0.559  0.00  0.00    +0.000 C 
ATOM      8  H   UNL     1       8.287  -9.130  -1.581  0.00  0.00    +0.000 HD
ATOM      9  H   UNL     1       7.892  -8.866   0.139  0.00  0.00    +0.000 HD
BRANCH   7  11
ATOM     10  O   UNL     1       8.406 -11.838  -1.129  0.00  0.00    +0.000 OA
ATOM     11  C   UNL     1       8.018 -10.906  -0.438  0.00  0.00    +0.000 C 
BRANCH  11  12
ATOM     12  O   UNL     1       7.091 -11.046   0.546  0.00  0.00    +0.000 OA
ATOM     13  H   UNL     1       6.176 -11.000   0.195  0.00  0.00    +0.000 HD
ENDBRANCH  11  12
ENDBRANCH   7  11
ENDBRANCH   4   7
ENDBRANCH   1   4
BRANCH   1  14
ATOM     14  C   UNL     1      11.305 -10.037  -2.341  0.00  0.00    +0.000 C 
ATOM     15  H   UNL     1      10.582 -10.199  -3.150  0.00  0.00    +0.000 HD
ATOM     16  H   UNL     1      11.343 -10.966  -1.759  0.00  0.00    +0.000 HD
BRANCH  14  17
ATOM     17  C   UNL     1      12.673  -9.780  -2.952  0.00  0.00    +0.000 C 
ATOM     18  H   UNL     1      13.435 -10.383  -2.448  0.00  0.00    +0.000 HD
ATOM     19  H   UNL     1      12.681 -10.039  -4.015  0.00  0.00    +0.000 HD
ATOM     20  H   UNL     1      12.952  -8.727  -2.853  0.00  0.00    +0.000 HD
ENDBRANCH  14  17
ENDBRANCH   1  14
TORSDOF 6
ENDMDL
MODEL 5
REMARK VINA RESULT:    -3.919     16.093     17.022
REMARK INTER + INTRA:          -5.153
REMARK INTER:                  -5.036
REMARK INTRA:                  -0.117
REMARK UNBOUND:                -0.089
REMARK  Name = 8892
REMARK  6 active torsions:
REMARK  status: ('A' for Active; 'I' for Inactive)
REMARK    1  A    between atoms: O_1  and  C_8
REMARK    2  A    between atoms: C_3  and  C_4
REMARK    3  A    between atoms: C_3  and  C_5
REMARK    4  A    between atoms: C_4  and  C_6
REMARK    5  A    between atoms: C_5  and  C_7
REMARK    6  A    between atoms: C_6  and  C_8
REMARK                            x       y       z     vdW  Elec       q    Type
REMARK                         _______ _______ _______ _____ _____    ______ ____
ROOT
ATOM      1  C   UNL     1       4.368  -2.595  -1.723  0.00  0.00    +0.000 C 
ATOM      2  H   UNL     1       3.806  -2.763  -2.652  0.00  0.00    +0.000 HD
ATOM      3  H   UNL     1       4.763  -1.572  -1.783  0.00  0.00    +0.000 HD
ENDROOT
BRANCH   1   4
ATOM      4  C   UNL     1       5.549  -3.569  -1.681  0.00  0.00    +0.000 C 
ATOM      5  H   UNL     1       5.473  -4.188  -0.778  0.00  0.00    +0.000 HD
ATOM      6  H   UNL     1       5.472  -4.255  -2.533  0.00  0.00    +0.000 HD
BRANCH   4   7
ATOM      7  C   UNL     1       6.911  -2.875  -1.701  0.00  0.00    +0.000 C 
ATOM      8  H   UNL     1       6.846  -1.916  -1.176  0.00  0.00    +0.000 HD
ATOM      9  H   UNL     1       7.217  -2.695  -2.737  0.00  0.00    +0.000 HD
BRANCH   7  11
ATOM     10  O   UNL     1       9.055  -3.297  -0.627  0.00  0.00    +0.000 OA
ATOM     11  C   UNL     1       7.980  -3.712  -1.036  0.00  0.00    +0.000 C 
BRANCH  11  12
ATOM     12  O   UNL     1       7.604  -5.015  -0.947  0.00  0.00    +0.000 OA
ATOM     13  H   UNL     1       6.655  -5.138  -1.165  0.00  0.00    +0.000 HD
ENDBRANCH  11  12
ENDBRANCH   7  11
ENDBRANCH   4   7
ENDBRANCH   1   4
BRANCH   1  14
ATOM     14  C   UNL     1       3.401  -2.673  -0.540  0.00  0.00    +0.000 C 
ATOM     15  H   UNL     1       2.453  -3.111  -0.877  0.00  0.00    +0.000 HD
ATOM     16  H   UNL     1       3.175  -1.658  -0.190  0.00  0.00    +0.000 HD
BRANCH  14  17
ATOM     17  C   UNL     1       3.932  -3.493   0.625  0.00  0.00    +0.000 C 
ATOM     18  H   UNL     1       3.981  -4.552   0.355  0.00  0.00    +0.000 HD
ATOM     19  H   UNL     1       4.938  -3.166   0.907  0.00  0.00    +0.000 HD
ATOM     20  H   UNL     1       3.281  -3.393   1.499  0.00  0.00    +0.000 HD
ENDBRANCH  14  17
ENDBRANCH   1  14
TORSDOF 6
ENDMDL
MODEL 6
REMARK VINA RESULT:    -3.832     18.078     18.897
REMARK INTER + INTRA:          -5.041
REMARK INTER:                  -4.981
REMARK INTRA:                  -0.060
REMARK UNBOUND:                -0.089
REMARK  Name = 8892
REMARK  6 active torsions:
REMARK  status: ('A' for Active; 'I' for Inactive)
REMARK    1  A    between atoms: O_1  and  C_8
REMARK    2  A    between atoms: C_3  and  C_4
REMARK    3  A    between atoms: C_3  and  C_5
REMARK    4  A    between atoms: C_4  and  C_6
REMARK    5  A    between atoms: C_5  and  C_7
REMARK    6  A    between atoms: C_6  and  C_8
REMARK                            x       y       z     vdW  Elec       q    Type
REMARK                         _______ _______ _______ _____ _____    ______ ____
ROOT
ATOM      1  C   UNL     1     -12.435 -14.735   8.658  0.00  0.00    +0.000 C 
ATOM      2  H   UNL     1     -12.406 -13.848   8.011  0.00  0.00    +0.000 HD
ATOM      3  H   UNL     1     -11.777 -14.518   9.509  0.00  0.00    +0.000 HD
ENDROOT
BRANCH   1   4
ATOM      4  C   UNL     1     -11.855 -15.924   7.886  0.00  0.00    +0.000 C 
ATOM      5  H   UNL     1     -12.172 -16.857   8.369  0.00  0.00    +0.000 HD
ATOM      6  H   UNL     1     -12.287 -15.936   6.878  0.00  0.00    +0.000 HD
BRANCH   4   7
ATOM      7  C   UNL     1     -10.329 -15.901   7.791  0.00  0.00    +0.000 C 
ATOM      8  H   UNL     1      -9.951 -14.933   8.137  0.00  0.00    +0.000 HD
ATOM      9  H   UNL     1     -10.022 -16.054   6.751  0.00  0.00    +0.000 HD
BRANCH   7  11
ATOM     10  O   UNL     1     -10.235 -18.035   8.960  0.00  0.00    +0.000 OA
ATOM     11  C   UNL     1      -9.696 -16.988   8.630  0.00  0.00    +0.000 C 
BRANCH  11  12
ATOM     12  O   UNL     1      -8.428 -16.659   8.993  0.00  0.00    +0.000 OA
ATOM     13  H   UNL     1      -8.412 -15.905   9.620  0.00  0.00    +0.000 HD
ENDBRANCH  11  12
ENDBRANCH   7  11
ENDBRANCH   4   7
ENDBRANCH   1   4
BRANCH   1  14
ATOM     14  C   UNL     1     -13.861 -14.917   9.181  0.00  0.00    +0.000 C 
ATOM     15  H   UNL     1     -14.004 -15.961   9.484  0.00  0.00    +0.000 HD
ATOM     16  H   UNL     1     -14.572 -14.721   8.369  0.00  0.00    +0.000 HD
BRANCH  14  17
ATOM     17  C   UNL     1     -14.195 -14.016  10.359  0.00  0.00    +0.000 C 
ATOM     18  H   UNL     1     -13.569 -14.268  11.222  0.00  0.00    +0.000 HD
ATOM     19  H   UNL     1     -14.022 -12.964  10.109  0.00  0.00    +0.000 HD
ATOM     20  H   UNL     1     -15.243 -14.131  10.653  0.00  0.00    +0.000 HD
ENDBRANCH  14  17
ENDBRANCH   1  14
TORSDOF 6
ENDMDL
MODEL 7
REMARK VINA RESULT:    -3.749     21.009     21.942
REMARK INTER + INTRA:          -4.934
REMARK INTER:                  -4.728
REMARK INTRA:                  -0.206
REMARK UNBOUND:                -0.089
REMARK  Name = 8892
REMARK  6 active torsions:
REMARK  status: ('A' for Active; 'I' for Inactive)
REMARK    1  A    between atoms: O_1  and  C_8
REMARK    2  A    between atoms: C_3  and  C_4
REMARK    3  A    between atoms: C_3  and  C_5
REMARK    4  A    between atoms: C_4  and  C_6
REMARK    5  A    between atoms: C_5  and  C_7
REMARK    6  A    between atoms: C_6  and  C_8
REMARK                            x       y       z     vdW  Elec       q    Type
REMARK                         _______ _______ _______ _____ _____    ______ ____
ROOT
ATOM      1  C   UNL     1     -20.457  -2.529   6.705  0.00  0.00    +0.000 C 
ATOM      2  H   UNL     1     -21.492  -2.179   6.590  0.00  0.00    +0.000 HD
ATOM      3  H   UNL     1     -20.496  -3.388   7.386  0.00  0.00    +0.000 HD
ENDROOT
BRANCH   1   4
ATOM      4  C   UNL     1     -19.635  -1.420   7.368  0.00  0.00    +0.000 C 
ATOM      5  H   UNL     1     -18.792  -1.157   6.716  0.00  0.00    +0.000 HD
ATOM      6  H   UNL     1     -20.256  -0.520   7.449  0.00  0.00    +0.000 HD
BRANCH   4   7
ATOM      7  C   UNL     1     -19.101  -1.802   8.749  0.00  0.00    +0.000 C 
ATOM      8  H   UNL     1     -19.569  -2.735   9.082  0.00  0.00    +0.000 HD
ATOM      9  H   UNL     1     -19.335  -1.008   9.467  0.00  0.00    +0.000 HD
BRANCH   7  11
ATOM     10  O   UNL     1     -16.769  -1.103   8.791  0.00  0.00    +0.000 OA
ATOM     11  C   UNL     1     -17.602  -1.997   8.739  0.00  0.00    +0.000 C 
BRANCH  11  12
ATOM     12  O   UNL     1     -17.274  -3.314   8.657  0.00  0.00    +0.000 OA
ATOM     13  H   UNL     1     -17.672  -3.740   7.868  0.00  0.00    +0.000 HD
ENDBRANCH  11  12
ENDBRANCH   7  11
ENDBRANCH   4   7
ENDBRANCH   1   4
BRANCH   1  14
ATOM     14  C   UNL     1     -19.946  -3.010   5.346  0.00  0.00    +0.000 C 
ATOM     15  H   UNL     1     -20.466  -2.464   4.550  0.00  0.00    +0.000 HD
ATOM     16  H   UNL     1     -20.198  -4.070   5.219  0.00  0.00    +0.000 HD
BRANCH  14  17
ATOM     17  C   UNL     1     -18.447  -2.833   5.162  0.00  0.00    +0.000 C 
ATOM     18  H   UNL     1     -18.015  -2.321   6.028  0.00  0.00    +0.000 HD
ATOM     19  H   UNL     1     -17.949  -3.802   5.055  0.00  0.00    +0.000 HD
ATOM     20  H   UNL     1     -18.232  -2.236   4.270  0.00  0.00    +0.000 HD
ENDBRANCH  14  17
ENDBRANCH   1  14
TORSDOF 6
ENDMDL
MODEL 8
REMARK VINA RESULT:    -3.627     16.567     17.206
REMARK INTER + INTRA:          -4.777
REMARK INTER:                  -4.650
REMARK INTRA:                  -0.127
REMARK UNBOUND:                -0.089
REMARK  Name = 8892
REMARK  6 active torsions:
REMARK  status: ('A' for Active; 'I' for Inactive)
REMARK    1  A    between atoms: O_1  and  C_8
REMARK    2  A    between atoms: C_3  and  C_4
REMARK    3  A    between atoms: C_3  and  C_5
REMARK    4  A    between atoms: C_4  and  C_6
REMARK    5  A    between atoms: C_5  and  C_7
REMARK    6  A    between atoms: C_6  and  C_8
REMARK                            x       y       z     vdW  Elec       q    Type
REMARK                         _______ _______ _______ _____ _____    ______ ____
ROOT
ATOM      1  C   UNL     1       6.037  -3.548  -1.598  0.00  0.00    +0.000 C 
ATOM      2  H   UNL     1       5.844  -3.810  -0.549  0.00  0.00    +0.000 HD
ATOM      3  H   UNL     1       6.327  -4.480  -2.100  0.00  0.00    +0.000 HD
ENDROOT
BRANCH   1   4
ATOM      4  C   UNL     1       7.221  -2.578  -1.651  0.00  0.00    +0.000 C 
ATOM      5  H   UNL     1       8.132  -3.135  -1.906  0.00  0.00    +0.000 HD
ATOM      6  H   UNL     1       7.057  -1.865  -2.468  0.00  0.00    +0.000 HD
BRANCH   4   7
ATOM      7  C   UNL     1       7.444  -1.819  -0.343  0.00  0.00    +0.000 C 
ATOM      8  H   UNL     1       6.701  -2.131   0.398  0.00  0.00    +0.000 HD
ATOM      9  H   UNL     1       7.344  -0.743  -0.520  0.00  0.00    +0.000 HD
BRANCH   7  11
ATOM     10  O   UNL     1       9.214  -1.705   1.326  0.00  0.00    +0.000 OA
ATOM     11  C   UNL     1       8.822  -2.073   0.227  0.00  0.00    +0.000 C 
BRANCH  11  12
ATOM     12  O   UNL     1       9.598  -2.769  -0.644  0.00  0.00    +0.000 OA
ATOM     13  H   UNL     1      10.538  -2.490  -0.599  0.00  0.00    +0.000 HD
ENDBRANCH  11  12
ENDBRANCH   7  11
ENDBRANCH   4   7
ENDBRANCH   1   4
BRANCH   1  14
ATOM     14  C   UNL     1       4.738  -3.042  -2.227  0.00  0.00    +0.000 C 
ATOM     15  H   UNL     1       4.196  -3.889  -2.667  0.00  0.00    +0.000 HD
ATOM     16  H   UNL     1       4.977  -2.357  -3.050  0.00  0.00    +0.000 HD
BRANCH  14  17
ATOM     17  C   UNL     1       3.821  -2.333  -1.243  0.00  0.00    +0.000 C 
ATOM     18  H   UNL     1       3.231  -3.062  -0.679  0.00  0.00    +0.000 HD
ATOM     19  H   UNL     1       4.400  -1.738  -0.529  0.00  0.00    +0.000 HD
ATOM     20  H   UNL     1       3.130  -1.665  -1.765  0.00  0.00    +0.000 HD
ENDBRANCH  14  17
ENDBRANCH   1  14
TORSDOF 6
ENDMDL
MODEL 9
REMARK VINA RESULT:    -3.490     15.846     16.750
REMARK INTER + INTRA:          -4.600
REMARK INTER:                  -4.475
REMARK INTRA:                  -0.124
REMARK UNBOUND:                -0.089
REMARK  Name = 8892
REMARK  6 active torsions:
REMARK  status: ('A' for Active; 'I' for Inactive)
REMARK    1  A    between atoms: O_1  and  C_8
REMARK    2  A    between atoms: C_3  and  C_4
REMARK    3  A    between atoms: C_3  and  C_5
REMARK    4  A    between atoms: C_4  and  C_6
REMARK    5  A    between atoms: C_5  and  C_7
REMARK    6  A    between atoms: C_6  and  C_8
REMARK                            x       y       z     vdW  Elec       q    Type
REMARK                         _______ _______ _______ _____ _____    ______ ____
ROOT
ATOM      1  C   UNL     1       3.696 -11.932   1.575  0.00  0.00    +0.000 C 
ATOM      2  H   UNL     1       3.115 -11.651   0.687  0.00  0.00    +0.000 HD
ATOM      3  H   UNL     1       4.364 -11.087   1.786  0.00  0.00    +0.000 HD
ENDROOT
BRANCH   1   4
ATOM      4  C   UNL     1       4.552 -13.155   1.236  0.00  0.00    +0.000 C 
ATOM      5  H   UNL     1       5.241 -13.355   2.067  0.00  0.00    +0.000 HD
ATOM      6  H   UNL     1       3.899 -14.033   1.159  0.00  0.00    +0.000 HD
BRANCH   4   7
ATOM      7  C   UNL     1       5.354 -12.997  -0.056  0.00  0.00    +0.000 C 
ATOM      8  H   UNL     1       4.743 -12.491  -0.812  0.00  0.00    +0.000 HD
ATOM      9  H   UNL     1       5.645 -13.983  -0.432  0.00  0.00    +0.000 HD
BRANCH   7  11
ATOM     10  O   UNL     1       7.562 -12.522   0.855  0.00  0.00    +0.000 OA
ATOM     11  C   UNL     1       6.614 -12.188   0.159  0.00  0.00    +0.000 C 
BRANCH  11  12
ATOM     12  O   UNL     1       6.569 -11.012  -0.522  0.00  0.00    +0.000 OA
ATOM     13  H   UNL     1       5.689 -10.858  -0.927  0.00  0.00    +0.000 HD
ENDBRANCH  11  12
ENDBRANCH   7  11
ENDBRANCH   4   7
ENDBRANCH   1   4
BRANCH   1  14
ATOM     14  C   UNL     1       2.739 -12.100   2.757  0.00  0.00    +0.000 C 
ATOM     15  H   UNL     1       1.804 -11.567   2.543  0.00  0.00    +0.000 HD
ATOM     16  H   UNL     1       3.176 -11.629   3.646  0.00  0.00    +0.000 HD
BRANCH  14  17
ATOM     17  C   UNL     1       2.413 -13.551   3.074  0.00  0.00    +0.000 C 
ATOM     18  H   UNL     1       1.431 -13.625   3.551  0.00  0.00    +0.000 HD
ATOM     19  H   UNL     1       2.396 -14.156   2.162  0.00  0.00    +0.000 HD
ATOM     20  H   UNL     1       3.156 -13.977   3.755  0.00  0.00    +0.000 HD
ENDBRANCH  14  17
ENDBRANCH   1  14
TORSDOF 6
ENDMDL
MODEL 10
REMARK VINA RESULT:    -3.437     22.577     24.471
REMARK INTER + INTRA:          -4.531
REMARK INTER:                  -4.441
REMARK INTRA:                  -0.089
REMARK UNBOUND:                -0.089
REMARK  Name = 8892
REMARK  6 active torsions:
REMARK  status: ('A' for Active; 'I' for Inactive)
REMARK    1  A    between atoms: O_1  and  C_8
REMARK    2  A    between atoms: C_3  and  C_4
REMARK    3  A    between atoms: C_3  and  C_5
REMARK    4  A    between atoms: C_4  and  C_6
REMARK    5  A    between atoms: C_5  and  C_7
REMARK    6  A    between atoms: C_6  and  C_8
REMARK                            x       y       z     vdW  Elec       q    Type
REMARK                         _______ _______ _______ _____ _____    ______ ____
ROOT
ATOM      1  C   UNL     1       5.858  13.076  -0.418  0.00  0.00    +0.000 C 
ATOM      2  H   UNL     1       4.793  13.168  -0.670  0.00  0.00    +0.000 HD
ATOM      3  H   UNL     1       6.085  13.905   0.264  0.00  0.00    +0.000 HD
ENDROOT
BRANCH   1   4
ATOM      4  C   UNL     1       6.682  13.257  -1.695  0.00  0.00    +0.000 C 
ATOM      5  H   UNL     1       6.119  12.858  -2.548  0.00  0.00    +0.000 HD
ATOM      6  H   UNL     1       6.809  14.330  -1.885  0.00  0.00    +0.000 HD
BRANCH   4   7
ATOM      7  C   UNL     1       8.052  12.581  -1.636  0.00  0.00    +0.000 C 
ATOM      8  H   UNL     1       7.933  11.526  -1.365  0.00  0.00    +0.000 HD
ATOM      9  H   UNL     1       8.675  13.076  -0.883  0.00  0.00    +0.000 HD
BRANCH   7  11
ATOM     10  O   UNL     1       9.563  13.529  -3.294  0.00  0.00    +0.000 OA
ATOM     11  C   UNL     1       8.774  12.654  -2.963  0.00  0.00    +0.000 C 
BRANCH  11  12
ATOM     12  O   UNL     1       8.434  11.615  -3.770  0.00  0.00    +0.000 OA
ATOM     13  H   UNL     1       7.912  11.912  -4.546  0.00  0.00    +0.000 HD
ENDBRANCH  11  12
ENDBRANCH   7  11
ENDBRANCH   4   7
ENDBRANCH   1   4
BRANCH   1  14
ATOM     14  C   UNL     1       6.075  11.759   0.330  0.00  0.00    +0.000 C 
ATOM     15  H   UNL     1       7.135  11.482   0.273  0.00  0.00    +0.000 HD
ATOM     16  H   UNL     1       5.511  10.962  -0.170  0.00  0.00    +0.000 HD
BRANCH  14  17
ATOM     17  C   UNL     1       5.662  11.815   1.792  0.00  0.00    +0.000 C 
ATOM     18  H   UNL     1       5.786  12.830   2.184  0.00  0.00    +0.000 HD
ATOM     19  H   UNL     1       4.612  11.530   1.912  0.00  0.00    +0.000 HD
ATOM     20  H   UNL     1       6.273  11.139   2.396  0.00  0.00    +0.000 HD
ENDBRANCH  14  17
ENDBRANCH   1  14
TORSDOF 6
ENDMDL
