MODEL 1
REMARK VINA RESULT:    -3.539      0.000      0.000
REMARK INTER + INTRA:          -4.584
REMARK INTER:                  -4.459
REMARK INTRA:                  -0.125
REMARK UNBOUND:                -0.114
REMARK  Name = 6184
REMARK  5 active torsions:
REMARK  status: ('A' for Active; 'I' for Inactive)
REMARK    1  A    between atoms: C_2  and  C_3
REMARK    2  A    between atoms: C_2  and  C_4
REMARK    3  A    between atoms: C_3  and  C_5
REMARK    4  A    between atoms: C_4  and  C_6
REMARK    5  A    between atoms: C_5  and  C_7
REMARK                            x       y       z     vdW  Elec       q    Type
REMARK                         _______ _______ _______ _____ _____    ______ ____
ROOT
ATOM      1  C   UNL     1      10.327  -9.008  -1.155  0.00  0.00    +0.000 C 
ATOM      2  H   UNL     1      11.082  -8.768  -0.397  0.00  0.00    +0.000 HD
ATOM      3  H   UNL     1      10.510  -8.350  -2.014  0.00  0.00    +0.000 HD
ENDROOT
BRANCH   1   4
ATOM      4  C   UNL     1      10.482 -10.469  -1.591  0.00  0.00    +0.000 C 
ATOM      5  H   UNL     1       9.492 -10.911  -1.758  0.00  0.00    +0.000 HD
ATOM      6  H   UNL     1      10.946 -11.044  -0.778  0.00  0.00    +0.000 HD
BRANCH   4   7
ATOM      7  C   UNL     1      11.321 -10.613  -2.857  0.00  0.00    +0.000 C 
ATOM      8  H   UNL     1      11.855 -11.569  -2.852  0.00  0.00    +0.000 HD
ATOM      9  H   UNL     1      10.672 -10.594  -3.739  0.00  0.00    +0.000 HD
BRANCH   7  11
ATOM     10  O   UNL     1      13.544  -9.633  -2.790  0.00  0.00    +0.000 OA
ATOM     11  C   UNL     1      12.349  -9.521  -3.041  0.00  0.00    +0.000 C 
ATOM     12  H   UNL     1      11.952  -8.575  -3.445  0.00  0.00    +0.000 HD
ENDBRANCH   7  11
ENDBRANCH   4   7
ENDBRANCH   1   4
BRANCH   1  13
ATOM     13  C   UNL     1       8.930  -8.743  -0.595  0.00  0.00    +0.000 C 
ATOM     14  H   UNL     1       9.006  -8.250   0.381  0.00  0.00    +0.000 HD
ATOM     15  H   UNL     1       8.386  -8.061  -1.260  0.00  0.00    +0.000 HD
BRANCH  13  16
ATOM     16  C   UNL     1       8.136 -10.030  -0.441  0.00  0.00    +0.000 C 
ATOM     17  H   UNL     1       8.147 -10.597  -1.376  0.00  0.00    +0.000 HD
ATOM     18  H   UNL     1       7.094  -9.819  -0.183  0.00  0.00    +0.000 HD
ATOM     19  H   UNL     1       8.563 -10.662   0.344  0.00  0.00    +0.000 HD
ENDBRANCH  13  16
ENDBRANCH   1  13
TORSDOF 5
ENDMDL
MODEL 2
REMARK VINA RESULT:    -3.538      2.494      4.428
REMARK INTER + INTRA:          -4.582
REMARK INTER:                  -4.543
REMARK INTRA:                  -0.040
REMARK UNBOUND:                -0.114
REMARK  Name = 6184
REMARK  5 active torsions:
REMARK  status: ('A' for Active; 'I' for Inactive)
REMARK    1  A    between atoms: C_2  and  C_3
REMARK    2  A    between atoms: C_2  and  C_4
REMARK    3  A    between atoms: C_3  and  C_5
REMARK    4  A    between atoms: C_4  and  C_6
REMARK    5  A    between atoms: C_5  and  C_7
REMARK                            x       y       z     vdW  Elec       q    Type
REMARK                         _______ _______ _______ _____ _____    ______ ____
ROOT
ATOM      1  C   UNL     1      11.727 -10.036  -2.990  0.00  0.00    +0.000 C 
ATOM      2  H   UNL     1      11.567 -11.121  -2.967  0.00  0.00    +0.000 HD
ATOM      3  H   UNL     1      11.228  -9.654  -3.890  0.00  0.00    +0.000 HD
ENDROOT
BRANCH   1   4
ATOM      4  C   UNL     1      11.096  -9.397  -1.748  0.00  0.00    +0.000 C 
ATOM      5  H   UNL     1      10.676  -8.418  -2.010  0.00  0.00    +0.000 HD
ATOM      6  H   UNL     1      11.876  -9.211  -0.999  0.00  0.00    +0.000 HD
BRANCH   4   7
ATOM      7  C   UNL     1      10.002 -10.268  -1.137  0.00  0.00    +0.000 C 
ATOM      8  H   UNL     1       9.656 -11.010  -1.865  0.00  0.00    +0.000 HD
ATOM      9  H   UNL     1      10.394 -10.806  -0.267  0.00  0.00    +0.000 HD
BRANCH   7  11
ATOM     10  O   UNL     1       8.632  -9.060   0.467  0.00  0.00    +0.000 OA
ATOM     11  C   UNL     1       8.791  -9.494  -0.668  0.00  0.00    +0.000 C 
ATOM     12  H   UNL     1       8.025  -9.321  -1.443  0.00  0.00    +0.000 HD
ENDBRANCH   7  11
ENDBRANCH   4   7
ENDBRANCH   1   4
BRANCH   1  13
ATOM     13  C   UNL     1      13.224  -9.736  -3.067  0.00  0.00    +0.000 C 
ATOM     14  H   UNL     1      13.392  -8.828  -3.657  0.00  0.00    +0.000 HD
ATOM     15  H   UNL     1      13.617  -9.547  -2.062  0.00  0.00    +0.000 HD
BRANCH  13  16
ATOM     16  C   UNL     1      13.992 -10.887  -3.697  0.00  0.00    +0.000 C 
ATOM     17  H   UNL     1      14.782 -11.230  -3.023  0.00  0.00    +0.000 HD
ATOM     18  H   UNL     1      14.458 -10.578  -4.638  0.00  0.00    +0.000 HD
ATOM     19  H   UNL     1      13.330 -11.734  -3.903  0.00  0.00    +0.000 HD
ENDBRANCH  13  16
ENDBRANCH   1  13
TORSDOF 5
ENDMDL
MODEL 3
REMARK VINA RESULT:    -3.417      5.671      7.181
REMARK INTER + INTRA:          -4.429
REMARK INTER:                  -4.314
REMARK INTRA:                  -0.115
REMARK UNBOUND:                -0.114
REMARK  Name = 6184
REMARK  5 active torsions:
REMARK  status: ('A' for Active; 'I' for Inactive)
REMARK    1  A    between atoms: C_2  and  C_3
REMARK    2  A    between atoms: C_2  and  C_4
REMARK    3  A    between atoms: C_3  and  C_5
REMARK    4  A    between atoms: C_4  and  C_6
REMARK    5  A    between atoms: C_5  and  C_7
REMARK                            x       y       z     vdW  Elec       q    Type
REMARK                         _______ _______ _______ _____ _____    ______ ____
ROOT
ATOM      1  C   UNL     1       2.876 -11.248   0.535  0.00  0.00    +0.000 C 
ATOM      2  H   UNL     1       2.509 -10.222   0.658  0.00  0.00    +0.000 HD
ATOM      3  H   UNL     1       2.015 -11.869   0.257  0.00  0.00    +0.000 HD
ENDROOT
BRANCH   1   4
ATOM      4  C   UNL     1       3.918 -11.291  -0.587  0.00  0.00    +0.000 C 
ATOM      5  H   UNL     1       4.622 -10.457  -0.469  0.00  0.00    +0.000 HD
ATOM      6  H   UNL     1       3.418 -11.141  -1.553  0.00  0.00    +0.000 HD
BRANCH   4   7
ATOM      7  C   UNL     1       4.692 -12.606  -0.614  0.00  0.00    +0.000 C 
ATOM      8  H   UNL     1       4.372 -13.251   0.210  0.00  0.00    +0.000 HD
ATOM      9  H   UNL     1       4.497 -13.135  -1.553  0.00  0.00    +0.000 HD
BRANCH   7  11
ATOM     10  O   UNL     1       6.787 -11.373  -0.605  0.00  0.00    +0.000 OA
ATOM     11  C   UNL     1       6.190 -12.439  -0.504  0.00  0.00    +0.000 C 
ATOM     12  H   UNL     1       6.746 -13.370  -0.305  0.00  0.00    +0.000 HD
ENDBRANCH   7  11
ENDBRANCH   4   7
ENDBRANCH   1   4
BRANCH   1  13
ATOM     13  C   UNL     1       3.462 -11.748   1.855  0.00  0.00    +0.000 C 
ATOM     14  H   UNL     1       4.235 -12.500   1.660  0.00  0.00    +0.000 HD
ATOM     15  H   UNL     1       3.946 -10.918   2.385  0.00  0.00    +0.000 HD
BRANCH  13  16
ATOM     16  C   UNL     1       2.392 -12.354   2.748  0.00  0.00    +0.000 C 
ATOM     17  H   UNL     1       2.830 -12.690   3.692  0.00  0.00    +0.000 HD
ATOM     18  H   UNL     1       1.922 -13.217   2.265  0.00  0.00    +0.000 HD
ATOM     19  H   UNL     1       1.611 -11.622   2.977  0.00  0.00    +0.000 HD
ENDBRANCH  13  16
ENDBRANCH   1  13
TORSDOF 5
ENDMDL
MODEL 4
REMARK VINA RESULT:    -3.216      7.220      8.499
REMARK INTER + INTRA:          -4.176
REMARK INTER:                  -3.980
REMARK INTRA:                  -0.196
REMARK UNBOUND:                -0.114
REMARK  Name = 6184
REMARK  5 active torsions:
REMARK  status: ('A' for Active; 'I' for Inactive)
REMARK    1  A    between atoms: C_2  and  C_3
REMARK    2  A    between atoms: C_2  and  C_4
REMARK    3  A    between atoms: C_3  and  C_5
REMARK    4  A    between atoms: C_4  and  C_6
REMARK    5  A    between atoms: C_5  and  C_7
REMARK                            x       y       z     vdW  Elec       q    Type
REMARK                         _______ _______ _______ _____ _____    ______ ____
ROOT
ATOM      1  C   UNL     1       3.137 -11.839   2.203  0.00  0.00    +0.000 C 
ATOM      2  H   UNL     1       3.160 -10.940   2.830  0.00  0.00    +0.000 HD
ATOM      3  H   UNL     1       2.893 -11.516   1.183  0.00  0.00    +0.000 HD
ENDROOT
BRANCH   1   4
ATOM      4  C   UNL     1       4.517 -12.505   2.210  0.00  0.00    +0.000 C 
ATOM      5  H   UNL     1       4.417 -13.559   2.497  0.00  0.00    +0.000 HD
ATOM      6  H   UNL     1       5.146 -12.032   2.976  0.00  0.00    +0.000 HD
BRANCH   4   7
ATOM      7  C   UNL     1       5.214 -12.415   0.855  0.00  0.00    +0.000 C 
ATOM      8  H   UNL     1       4.865 -11.535   0.306  0.00  0.00    +0.000 HD
ATOM      9  H   UNL     1       6.296 -12.317   0.997  0.00  0.00    +0.000 HD
BRANCH   7  11
ATOM     10  O   UNL     1       4.875 -14.772   0.368  0.00  0.00    +0.000 OA
ATOM     11  C   UNL     1       4.992 -13.619  -0.031  0.00  0.00    +0.000 C 
ATOM     12  H   UNL     1       4.923 -13.394  -1.109  0.00  0.00    +0.000 HD
ENDBRANCH   7  11
ENDBRANCH   4   7
ENDBRANCH   1   4
BRANCH   1  13
ATOM     13  C   UNL     1       2.058 -12.795   2.711  0.00  0.00    +0.000 C 
ATOM     14  H   UNL     1       1.459 -12.305   3.486  0.00  0.00    +0.000 HD
ATOM     15  H   UNL     1       1.377 -13.055   1.891  0.00  0.00    +0.000 HD
BRANCH  13  16
ATOM     16  C   UNL     1       2.663 -14.068   3.280  0.00  0.00    +0.000 C 
ATOM     17  H   UNL     1       3.459 -13.825   3.991  0.00  0.00    +0.000 HD
ATOM     18  H   UNL     1       3.094 -14.686   2.486  0.00  0.00    +0.000 HD
ATOM     19  H   UNL     1       1.908 -14.660   3.806  0.00  0.00    +0.000 HD
ENDBRANCH  13  16
ENDBRANCH   1  13
TORSDOF 5
ENDMDL
MODEL 5
REMARK VINA RESULT:    -3.156      4.253      5.673
REMARK INTER + INTRA:          -4.100
REMARK INTER:                  -4.032
REMARK INTRA:                  -0.068
REMARK UNBOUND:                -0.114
REMARK  Name = 6184
REMARK  5 active torsions:
REMARK  status: ('A' for Active; 'I' for Inactive)
REMARK    1  A    between atoms: C_2  and  C_3
REMARK    2  A    between atoms: C_2  and  C_4
REMARK    3  A    between atoms: C_3  and  C_5
REMARK    4  A    between atoms: C_4  and  C_6
REMARK    5  A    between atoms: C_5  and  C_7
REMARK                            x       y       z     vdW  Elec       q    Type
REMARK                         _______ _______ _______ _____ _____    ______ ____
ROOT
ATOM      1  C   UNL     1       8.729 -11.596  -0.378  0.00  0.00    +0.000 C 
ATOM      2  H   UNL     1       8.997 -11.914   0.636  0.00  0.00    +0.000 HD
ATOM      3  H   UNL     1       8.966 -12.430  -1.052  0.00  0.00    +0.000 HD
ENDROOT
BRANCH   1   4
ATOM      4  C   UNL     1       7.227 -11.300  -0.445  0.00  0.00    +0.000 C 
ATOM      5  H   UNL     1       7.018 -10.646  -1.301  0.00  0.00    +0.000 HD
ATOM      6  H   UNL     1       6.926 -10.743   0.452  0.00  0.00    +0.000 HD
BRANCH   4   7
ATOM      7  C   UNL     1       6.387 -12.568  -0.562  0.00  0.00    +0.000 C 
ATOM      8  H   UNL     1       6.507 -13.012  -1.556  0.00  0.00    +0.000 HD
ATOM      9  H   UNL     1       6.717 -13.305   0.178  0.00  0.00    +0.000 HD
BRANCH   7  11
ATOM     10  O   UNL     1       4.200 -11.608  -1.013  0.00  0.00    +0.000 OA
ATOM     11  C   UNL     1       4.909 -12.348  -0.340  0.00  0.00    +0.000 C 
ATOM     12  H   UNL     1       4.475 -12.928   0.492  0.00  0.00    +0.000 HD
ENDBRANCH   7  11
ENDBRANCH   4   7
ENDBRANCH   1   4
BRANCH   1  13
ATOM     13  C   UNL     1       9.554 -10.371  -0.770  0.00  0.00    +0.000 C 
ATOM     14  H   UNL     1      10.474 -10.334  -0.175  0.00  0.00    +0.000 HD
ATOM     15  H   UNL     1       9.853 -10.445  -1.823  0.00  0.00    +0.000 HD
BRANCH  13  16
ATOM     16  C   UNL     1       8.774  -9.083  -0.561  0.00  0.00    +0.000 C 
ATOM     17  H   UNL     1       8.726  -8.837   0.504  0.00  0.00    +0.000 HD
ATOM     18  H   UNL     1       7.750  -9.180  -0.934  0.00  0.00    +0.000 HD
ATOM     19  H   UNL     1       9.251  -8.247  -1.081  0.00  0.00    +0.000 HD
ENDBRANCH  13  16
ENDBRANCH   1  13
TORSDOF 5
ENDMDL
MODEL 6
REMARK VINA RESULT:    -3.150      3.697      4.762
REMARK INTER + INTRA:          -4.093
REMARK INTER:                  -3.986
REMARK INTRA:                  -0.107
REMARK UNBOUND:                -0.114
REMARK  Name = 6184
REMARK  5 active torsions:
REMARK  status: ('A' for Active; 'I' for Inactive)
REMARK    1  A    between atoms: C_2  and  C_3
REMARK    2  A    between atoms: C_2  and  C_4
REMARK    3  A    between atoms: C_3  and  C_5
REMARK    4  A    between atoms: C_4  and  C_6
REMARK    5  A    between atoms: C_5  and  C_7
REMARK                            x       y       z     vdW  Elec       q    Type
REMARK                         _______ _______ _______ _____ _____    ______ ____
ROOT
ATOM      1  C   UNL     1       9.795 -10.556  -0.310  0.00  0.00    +0.000 C 
ATOM      2  H   UNL     1       9.949 -10.775   0.753  0.00  0.00    +0.000 HD
ATOM      3  H   UNL     1      10.775 -10.618  -0.800  0.00  0.00    +0.000 HD
ENDROOT
BRANCH   1   4
ATOM      4  C   UNL     1       8.855 -11.603  -0.919  0.00  0.00    +0.000 C 
ATOM      5  H   UNL     1       9.166 -12.606  -0.602  0.00  0.00    +0.000 HD
ATOM      6  H   UNL     1       8.946 -11.580  -2.013  0.00  0.00    +0.000 HD
BRANCH   4   7
ATOM      7  C   UNL     1       7.398 -11.378  -0.525  0.00  0.00    +0.000 C 
ATOM      8  H   UNL     1       7.176 -10.306  -0.490  0.00  0.00    +0.000 HD
ATOM      9  H   UNL     1       6.735 -11.837  -1.266  0.00  0.00    +0.000 HD
BRANCH   7  11
ATOM     10  O   UNL     1       6.848 -13.153   1.042  0.00  0.00    +0.000 OA
ATOM     11  C   UNL     1       7.029 -11.961   0.820  0.00  0.00    +0.000 C 
ATOM     12  H   UNL     1       6.938 -11.223   1.635  0.00  0.00    +0.000 HD
ENDBRANCH   7  11
ENDBRANCH   4   7
ENDBRANCH   1   4
BRANCH   1  13
ATOM     13  C   UNL     1       9.230  -9.145  -0.471  0.00  0.00    +0.000 C 
ATOM     14  H   UNL     1       8.333  -9.171  -1.100  0.00  0.00    +0.000 HD
ATOM     15  H   UNL     1       8.928  -8.752   0.508  0.00  0.00    +0.000 HD
BRANCH  13  16
ATOM     16  C   UNL     1      10.248  -8.204  -1.095  0.00  0.00    +0.000 C 
ATOM     17  H   UNL     1      11.058  -8.775  -1.559  0.00  0.00    +0.000 HD
ATOM     18  H   UNL     1      10.686  -7.545  -0.339  0.00  0.00    +0.000 HD
ATOM     19  H   UNL     1       9.785  -7.582  -1.867  0.00  0.00    +0.000 HD
ENDBRANCH  13  16
ENDBRANCH   1  13
TORSDOF 5
ENDMDL
MODEL 7
REMARK VINA RESULT:    -3.118     32.144     33.436
REMARK INTER + INTRA:          -4.052
REMARK INTER:                  -3.962
REMARK INTRA:                  -0.090
REMARK UNBOUND:                -0.114
REMARK  Name = 6184
REMARK  5 active torsions:
REMARK  status: ('A' for Active; 'I' for Inactive)
REMARK    1  A    between atoms: C_2  and  C_3
REMARK    2  A    between atoms: C_2  and  C_4
REMARK    3  A    between atoms: C_3  and  C_5
REMARK    4  A    between atoms: C_4  and  C_6
REMARK    5  A    between atoms: C_5  and  C_7
REMARK                            x       y       z     vdW  Elec       q    Type
REMARK                         _______ _______ _______ _____ _____    ______ ____
ROOT
ATOM      1  C   UNL     1      -7.620   7.009  20.452  0.00  0.00    +0.000 C 
ATOM      2  H   UNL     1      -7.105   7.169  19.497  0.00  0.00    +0.000 HD
ATOM      3  H   UNL     1      -6.946   7.355  21.246  0.00  0.00    +0.000 HD
ENDROOT
BRANCH   1   4
ATOM      4  C   UNL     1      -8.910   7.836  20.484  0.00  0.00    +0.000 C 
ATOM      5  H   UNL     1      -9.057   8.251  21.489  0.00  0.00    +0.000 HD
ATOM      6  H   UNL     1      -9.768   7.178  20.291  0.00  0.00    +0.000 HD
BRANCH   4   7
ATOM      7  C   UNL     1      -8.901   8.971  19.465  0.00  0.00    +0.000 C 
ATOM      8  H   UNL     1      -9.806   9.579  19.565  0.00  0.00    +0.000 HD
ATOM      9  H   UNL     1      -8.037   9.622  19.638  0.00  0.00    +0.000 HD
BRANCH   7  11
ATOM     10  O   UNL     1      -9.648   7.783  17.480  0.00  0.00    +0.000 OA
ATOM     11  C   UNL     1      -8.824   8.507  18.029  0.00  0.00    +0.000 C 
ATOM     12  H   UNL     1      -7.952   8.882  17.467  0.00  0.00    +0.000 HD
ENDBRANCH   7  11
ENDBRANCH   4   7
ENDBRANCH   1   4
BRANCH   1  13
ATOM     13  C   UNL     1      -7.911   5.520  20.638  0.00  0.00    +0.000 C 
ATOM     14  H   UNL     1      -8.504   5.367  21.547  0.00  0.00    +0.000 HD
ATOM     15  H   UNL     1      -8.508   5.150  19.796  0.00  0.00    +0.000 HD
BRANCH  13  16
ATOM     16  C   UNL     1      -6.629   4.709  20.738  0.00  0.00    +0.000 C 
ATOM     17  H   UNL     1      -6.038   5.039  21.597  0.00  0.00    +0.000 HD
ATOM     18  H   UNL     1      -6.018   4.830  19.838  0.00  0.00    +0.000 HD
ATOM     19  H   UNL     1      -6.848   3.644  20.864  0.00  0.00    +0.000 HD
ENDBRANCH  13  16
ENDBRANCH   1  13
TORSDOF 5
ENDMDL
MODEL 8
REMARK VINA RESULT:    -3.103     16.322     17.266
REMARK INTER + INTRA:          -4.033
REMARK INTER:                  -3.937
REMARK INTRA:                  -0.096
REMARK UNBOUND:                -0.114
REMARK  Name = 6184
REMARK  5 active torsions:
REMARK  status: ('A' for Active; 'I' for Inactive)
REMARK    1  A    between atoms: C_2  and  C_3
REMARK    2  A    between atoms: C_2  and  C_4
REMARK    3  A    between atoms: C_3  and  C_5
REMARK    4  A    between atoms: C_4  and  C_6
REMARK    5  A    between atoms: C_5  and  C_7
REMARK                            x       y       z     vdW  Elec       q    Type
REMARK                         _______ _______ _______ _____ _____    ______ ____
ROOT
ATOM      1  C   UNL     1      -5.176  -6.628  -9.799  0.00  0.00    +0.000 C 
ATOM      2  H   UNL     1      -5.452  -5.957 -10.621  0.00  0.00    +0.000 HD
ATOM      3  H   UNL     1      -5.574  -7.621 -10.045  0.00  0.00    +0.000 HD
ENDROOT
BRANCH   1   4
ATOM      4  C   UNL     1      -3.649  -6.706  -9.690  0.00  0.00    +0.000 C 
ATOM      5  H   UNL     1      -3.329  -6.320  -8.714  0.00  0.00    +0.000 HD
ATOM      6  H   UNL     1      -3.197  -6.052 -10.446  0.00  0.00    +0.000 HD
BRANCH   4   7
ATOM      7  C   UNL     1      -3.123  -8.127  -9.867  0.00  0.00    +0.000 C 
ATOM      8  H   UNL     1      -3.658  -8.631 -10.680  0.00  0.00    +0.000 HD
ATOM      9  H   UNL     1      -2.060  -8.103 -10.126  0.00  0.00    +0.000 HD
BRANCH   7  11
ATOM     10  O   UNL     1      -3.941 -10.006  -8.559  0.00  0.00    +0.000 OA
ATOM     11  C   UNL     1      -3.258  -8.991  -8.633  0.00  0.00    +0.000 C 
ATOM     12  H   UNL     1      -2.671  -8.650  -7.764  0.00  0.00    +0.000 HD
ENDBRANCH   7  11
ENDBRANCH   4   7
ENDBRANCH   1   4
BRANCH   1  13
ATOM     13  C   UNL     1      -5.801  -6.134  -8.495  0.00  0.00    +0.000 C 
ATOM     14  H   UNL     1      -5.610  -6.855  -7.692  0.00  0.00    +0.000 HD
ATOM     15  H   UNL     1      -5.336  -5.186  -8.197  0.00  0.00    +0.000 HD
BRANCH  13  16
ATOM     16  C   UNL     1      -7.301  -5.932  -8.637  0.00  0.00    +0.000 C 
ATOM     17  H   UNL     1      -7.580  -4.923  -8.318  0.00  0.00    +0.000 HD
ATOM     18  H   UNL     1      -7.852  -6.648  -8.020  0.00  0.00    +0.000 HD
ATOM     19  H   UNL     1      -7.617  -6.059  -9.677  0.00  0.00    +0.000 HD
ENDBRANCH  13  16
ENDBRANCH   1  13
TORSDOF 5
ENDMDL
MODEL 9
REMARK VINA RESULT:    -3.097     22.531     23.277
REMARK INTER + INTRA:          -4.026
REMARK INTER:                  -3.912
REMARK INTRA:                  -0.114
REMARK UNBOUND:                -0.114
REMARK  Name = 6184
REMARK  5 active torsions:
REMARK  status: ('A' for Active; 'I' for Inactive)
REMARK    1  A    between atoms: C_2  and  C_3
REMARK    2  A    between atoms: C_2  and  C_4
REMARK    3  A    between atoms: C_3  and  C_5
REMARK    4  A    between atoms: C_4  and  C_6
REMARK    5  A    between atoms: C_5  and  C_7
REMARK                            x       y       z     vdW  Elec       q    Type
REMARK                         _______ _______ _______ _____ _____    ______ ____
ROOT
ATOM      1  C   UNL     1       5.464  12.894  -0.320  0.00  0.00    +0.000 C 
ATOM      2  H   UNL     1       4.511  12.565  -0.753  0.00  0.00    +0.000 HD
ATOM      3  H   UNL     1       5.243  13.742   0.342  0.00  0.00    +0.000 HD
ENDROOT
BRANCH   1   4
ATOM      4  C   UNL     1       6.077  11.754   0.500  0.00  0.00    +0.000 C 
ATOM      5  H   UNL     1       7.170  11.849   0.504  0.00  0.00    +0.000 HD
ATOM      6  H   UNL     1       5.850  10.795   0.015  0.00  0.00    +0.000 HD
BRANCH   4   7
ATOM      7  C   UNL     1       5.566  11.730   1.938  0.00  0.00    +0.000 C 
ATOM      8  H   UNL     1       5.378  10.699   2.257  0.00  0.00    +0.000 HD
ATOM      9  H   UNL     1       6.317  12.160   2.609  0.00  0.00    +0.000 HD
BRANCH   7  11
ATOM     10  O   UNL     1       3.760  12.711   3.236  0.00  0.00    +0.000 OA
ATOM     11  C   UNL     1       4.287  12.509   2.148  0.00  0.00    +0.000 C 
ATOM     12  H   UNL     1       3.837  12.916   1.228  0.00  0.00    +0.000 HD
ENDBRANCH   7  11
ENDBRANCH   4   7
ENDBRANCH   1   4
BRANCH   1  13
ATOM     13  C   UNL     1       6.408  13.346  -1.434  0.00  0.00    +0.000 C 
ATOM     14  H   UNL     1       5.932  13.199  -2.410  0.00  0.00    +0.000 HD
ATOM     15  H   UNL     1       6.616  14.418  -1.333  0.00  0.00    +0.000 HD
BRANCH  13  16
ATOM     16  C   UNL     1       7.719  12.577  -1.400  0.00  0.00    +0.000 C 
ATOM     17  H   UNL     1       8.149  12.516  -2.404  0.00  0.00    +0.000 HD
ATOM     18  H   UNL     1       7.566  11.557  -1.033  0.00  0.00    +0.000 HD
ATOM     19  H   UNL     1       8.447  13.071  -0.748  0.00  0.00    +0.000 HD
ENDBRANCH  13  16
ENDBRANCH   1  13
TORSDOF 5
ENDMDL
MODEL 10
REMARK VINA RESULT:    -3.090     19.899     20.540
REMARK INTER + INTRA:          -4.017
REMARK INTER:                  -3.902
REMARK INTRA:                  -0.115
REMARK UNBOUND:                -0.114
REMARK  Name = 6184
REMARK  5 active torsions:
REMARK  status: ('A' for Active; 'I' for Inactive)
REMARK    1  A    between atoms: C_2  and  C_3
REMARK    2  A    between atoms: C_2  and  C_4
REMARK    3  A    between atoms: C_3  and  C_5
REMARK    4  A    between atoms: C_4  and  C_6
REMARK    5  A    between atoms: C_5  and  C_7
REMARK                            x       y       z     vdW  Elec       q    Type
REMARK                         _______ _______ _______ _____ _____    ______ ____
ROOT
ATOM      1  C   UNL     1      16.626   8.914   3.646  0.00  0.00    +0.000 C 
ATOM      2  H   UNL     1      16.447   8.142   4.404  0.00  0.00    +0.000 HD
ATOM      3  H   UNL     1      17.604   9.362   3.865  0.00  0.00    +0.000 HD
ENDROOT
BRANCH   1   4
ATOM      4  C   UNL     1      16.663   8.270   2.256  0.00  0.00    +0.000 C 
ATOM      5  H   UNL     1      16.013   7.386   2.241  0.00  0.00    +0.000 HD
ATOM      6  H   UNL     1      17.679   7.911   2.048  0.00  0.00    +0.000 HD
BRANCH   4   7
ATOM      7  C   UNL     1      16.229   9.234   1.155  0.00  0.00    +0.000 C 
ATOM      8  H   UNL     1      15.708   8.691   0.359  0.00  0.00    +0.000 HD
ATOM      9  H   UNL     1      15.539   9.981   1.562  0.00  0.00    +0.000 HD
BRANCH   7  11
ATOM     10  O   UNL     1      18.498   9.539   0.337  0.00  0.00    +0.000 OA
ATOM     11  C   UNL     1      17.371   9.989   0.515  0.00  0.00    +0.000 C 
ATOM     12  H   UNL     1      17.123  11.013   0.189  0.00  0.00    +0.000 HD
ENDBRANCH   7  11
ENDBRANCH   4   7
ENDBRANCH   1   4
BRANCH   1  13
ATOM     13  C   UNL     1      15.540   9.985   3.732  0.00  0.00    +0.000 C 
ATOM     14  H   UNL     1      15.857  10.883   3.191  0.00  0.00    +0.000 HD
ATOM     15  H   UNL     1      14.623   9.624   3.251  0.00  0.00    +0.000 HD
BRANCH  13  16
ATOM     16  C   UNL     1      15.234  10.355   5.174  0.00  0.00    +0.000 C 
ATOM     17  H   UNL     1      15.747  11.283   5.445  0.00  0.00    +0.000 HD
ATOM     18  H   UNL     1      15.569   9.570   5.860  0.00  0.00    +0.000 HD
ATOM     19  H   UNL     1      14.160  10.504   5.322  0.00  0.00    +0.000 HD
ENDBRANCH  13  16
ENDBRANCH   1  13
TORSDOF 5
ENDMDL
