MODEL 1
REMARK VINA RESULT:    -5.511      0.000      0.000
REMARK INTER + INTRA:          -5.511
REMARK INTER:                  -5.511
REMARK INTRA:                   0.000
REMARK UNBOUND:                 0.000
REMARK  Name = 798
REMARK  0 active torsions:
REMARK  status: ('A' for Active; 'I' for Inactive)
REMARK                            x       y       z     vdW  Elec       q    Type
REMARK                         _______ _______ _______ _____ _____    ______ ____
ROOT
ATOM      1  N   UNL     1       7.377 -10.727  -0.152  0.00  0.00    +0.000 N 
ATOM      2  C   UNL     1       8.510 -10.095  -0.611  0.00  0.00    +0.000 A 
ATOM      3  C   UNL     1       9.265 -11.050  -1.297  0.00  0.00    +0.000 A 
ATOM      4  C   UNL     1       8.544 -12.276  -1.232  0.00  0.00    +0.000 A 
ATOM      5  C   UNL     1       8.922  -8.765  -0.474  0.00  0.00    +0.000 A 
ATOM      6  C   UNL     1      10.489 -10.661  -1.874  0.00  0.00    +0.000 A 
ATOM      7  C   UNL     1       7.388 -12.044  -0.521  0.00  0.00    +0.000 A 
ATOM      8  C   UNL     1      10.140  -8.401  -1.055  0.00  0.00    +0.000 A 
ATOM      9  C   UNL     1      10.914  -9.333  -1.745  0.00  0.00    +0.000 A 
ATOM     10  H   UNL     1       6.643 -10.281   0.382  0.00  0.00    +0.000 HD
ATOM     11  H   UNL     1       8.837 -13.224  -1.658  0.00  0.00    +0.000 HD
ATOM     12  H   UNL     1       8.322  -8.038   0.062  0.00  0.00    +0.000 HD
ATOM     13  H   UNL     1      11.101 -11.377  -2.414  0.00  0.00    +0.000 HD
ATOM     14  H   UNL     1       6.574 -12.700  -0.247  0.00  0.00    +0.000 HD
ATOM     15  H   UNL     1      10.489  -7.375  -0.967  0.00  0.00    +0.000 HD
ATOM     16  H   UNL     1      11.857  -9.027  -2.188  0.00  0.00    +0.000 HD
ENDROOT
TORSDOF 0
ENDMDL
MODEL 2
REMARK VINA RESULT:    -5.095     18.055     19.220
REMARK INTER + INTRA:          -5.095
REMARK INTER:                  -5.095
REMARK INTRA:                   0.000
REMARK UNBOUND:                 0.000
REMARK  Name = 798
REMARK  0 active torsions:
REMARK  status: ('A' for Active; 'I' for Inactive)
REMARK                            x       y       z     vdW  Elec       q    Type
REMARK                         _______ _______ _______ _____ _____    ______ ____
ROOT
ATOM      1  N   UNL     1       2.709  -5.113  14.427  0.00  0.00    +0.000 N 
ATOM      2  C   UNL     1       1.688  -5.798  15.045  0.00  0.00    +0.000 A 
ATOM      3  C   UNL     1       0.853  -4.846  15.637  0.00  0.00    +0.000 A 
ATOM      4  C   UNL     1       1.411  -3.568  15.352  0.00  0.00    +0.000 A 
ATOM      5  C   UNL     1       1.440  -7.172  15.126  0.00  0.00    +0.000 A 
ATOM      6  C   UNL     1      -0.283  -5.286  16.343  0.00  0.00    +0.000 A 
ATOM      7  C   UNL     1       2.551  -3.765  14.607  0.00  0.00    +0.000 A 
ATOM      8  C   UNL     1       0.307  -7.585  15.832  0.00  0.00    +0.000 A 
ATOM      9  C   UNL     1      -0.544  -6.658  16.432  0.00  0.00    +0.000 A 
ATOM     10  H   UNL     1       3.467  -5.544  13.915  0.00  0.00    +0.000 HD
ATOM     11  H   UNL     1       1.022  -2.607  15.658  0.00  0.00    +0.000 HD
ATOM     12  H   UNL     1       2.100  -7.896  14.659  0.00  0.00    +0.000 HD
ATOM     13  H   UNL     1      -0.953  -4.574  16.816  0.00  0.00    +0.000 HD
ATOM     14  H   UNL     1       3.263  -3.067  14.189  0.00  0.00    +0.000 HD
ATOM     15  H   UNL     1       0.085  -8.647  15.913  0.00  0.00    +0.000 HD
ATOM     16  H   UNL     1      -1.419  -7.003  16.976  0.00  0.00    +0.000 HD
ENDROOT
TORSDOF 0
ENDMDL
MODEL 3
REMARK VINA RESULT:    -4.995     18.039     18.862
REMARK INTER + INTRA:          -4.995
REMARK INTER:                  -4.995
REMARK INTRA:                   0.000
REMARK UNBOUND:                 0.000
REMARK  Name = 798
REMARK  0 active torsions:
REMARK  status: ('A' for Active; 'I' for Inactive)
REMARK                            x       y       z     vdW  Elec       q    Type
REMARK                         _______ _______ _______ _____ _____    ______ ____
ROOT
ATOM      1  N   UNL     1       2.047  -6.518  15.876  0.00  0.00    +0.000 N 
ATOM      2  C   UNL     1       2.475  -5.261  15.514  0.00  0.00    +0.000 A 
ATOM      3  C   UNL     1       1.364  -4.416  15.565  0.00  0.00    +0.000 A 
ATOM      4  C   UNL     1       0.254  -5.212  15.970  0.00  0.00    +0.000 A 
ATOM      5  C   UNL     1       3.749  -4.811  15.149  0.00  0.00    +0.000 A 
ATOM      6  C   UNL     1       1.529  -3.057  15.236  0.00  0.00    +0.000 A 
ATOM      7  C   UNL     1       0.706  -6.498  16.153  0.00  0.00    +0.000 A 
ATOM      8  C   UNL     1       3.889  -3.458  14.827  0.00  0.00    +0.000 A 
ATOM      9  C   UNL     1       2.797  -2.592  14.869  0.00  0.00    +0.000 A 
ATOM     10  H   UNL     1       2.637  -7.337  15.929  0.00  0.00    +0.000 HD
ATOM     11  H   UNL     1      -0.764  -4.880  16.112  0.00  0.00    +0.000 HD
ATOM     12  H   UNL     1       4.600  -5.483  15.115  0.00  0.00    +0.000 HD
ATOM     13  H   UNL     1       0.687  -2.372  15.265  0.00  0.00    +0.000 HD
ATOM     14  H   UNL     1       0.193  -7.401  16.456  0.00  0.00    +0.000 HD
ATOM     15  H   UNL     1       4.865  -3.076  14.539  0.00  0.00    +0.000 HD
ATOM     16  H   UNL     1       2.931  -1.545  14.614  0.00  0.00    +0.000 HD
ENDROOT
TORSDOF 0
ENDMDL
MODEL 4
REMARK VINA RESULT:    -4.866      6.085      7.638
REMARK INTER + INTRA:          -4.866
REMARK INTER:                  -4.866
REMARK INTRA:                   0.000
REMARK UNBOUND:                 0.000
REMARK  Name = 798
REMARK  0 active torsions:
REMARK  status: ('A' for Active; 'I' for Inactive)
REMARK                            x       y       z     vdW  Elec       q    Type
REMARK                         _______ _______ _______ _____ _____    ______ ____
ROOT
ATOM      1  N   UNL     1       4.747 -15.097   2.638  0.00  0.00    +0.000 N 
ATOM      2  C   UNL     1       4.184 -13.887   2.301  0.00  0.00    +0.000 A 
ATOM      3  C   UNL     1       2.960 -13.801   2.969  0.00  0.00    +0.000 A 
ATOM      4  C   UNL     1       2.809 -15.002   3.718  0.00  0.00    +0.000 A 
ATOM      5  C   UNL     1       4.660 -12.871   1.464  0.00  0.00    +0.000 A 
ATOM      6  C   UNL     1       2.172 -12.647   2.795  0.00  0.00    +0.000 A 
ATOM      7  C   UNL     1       3.924 -15.778   3.494  0.00  0.00    +0.000 A 
ATOM      8  C   UNL     1       3.860 -11.735   1.307  0.00  0.00    +0.000 A 
ATOM      9  C   UNL     1       2.635 -11.623   1.961  0.00  0.00    +0.000 A 
ATOM     10  H   UNL     1       5.639 -15.433   2.302  0.00  0.00    +0.000 HD
ATOM     11  H   UNL     1       1.977 -15.270   4.353  0.00  0.00    +0.000 HD
ATOM     12  H   UNL     1       5.613 -12.956   0.954  0.00  0.00    +0.000 HD
ATOM     13  H   UNL     1       1.215 -12.546   3.299  0.00  0.00    +0.000 HD
ATOM     14  H   UNL     1       4.203 -16.753   3.867  0.00  0.00    +0.000 HD
ATOM     15  H   UNL     1       4.201 -10.927   0.663  0.00  0.00    +0.000 HD
ATOM     16  H   UNL     1       2.031 -10.730   1.823  0.00  0.00    +0.000 HD
ENDROOT
TORSDOF 0
ENDMDL
MODEL 5
REMARK VINA RESULT:    -4.570     17.050     18.026
REMARK INTER + INTRA:          -4.570
REMARK INTER:                  -4.570
REMARK INTRA:                   0.000
REMARK UNBOUND:                 0.000
REMARK  Name = 798
REMARK  0 active torsions:
REMARK  status: ('A' for Active; 'I' for Inactive)
REMARK                            x       y       z     vdW  Elec       q    Type
REMARK                         _______ _______ _______ _____ _____    ______ ____
ROOT
ATOM      1  N   UNL     1       3.881  -6.711  14.522  0.00  0.00    +0.000 N 
ATOM      2  C   UNL     1       3.167  -5.576  14.829  0.00  0.00    +0.000 A 
ATOM      3  C   UNL     1       1.814  -5.924  14.815  0.00  0.00    +0.000 A 
ATOM      4  C   UNL     1       1.743  -7.308  14.490  0.00  0.00    +0.000 A 
ATOM      5  C   UNL     1       3.609  -4.279  15.114  0.00  0.00    +0.000 A 
ATOM      6  C   UNL     1       0.855  -4.932  15.099  0.00  0.00    +0.000 A 
ATOM      7  C   UNL     1       3.030  -7.763  14.316  0.00  0.00    +0.000 A 
ATOM      8  C   UNL     1       2.639  -3.312  15.393  0.00  0.00    +0.000 A 
ATOM      9  C   UNL     1       1.283  -3.631  15.387  0.00  0.00    +0.000 A 
ATOM     10  H   UNL     1       4.889  -6.761  14.459  0.00  0.00    +0.000 HD
ATOM     11  H   UNL     1       0.849  -7.907  14.393  0.00  0.00    +0.000 HD
ATOM     12  H   UNL     1       4.664  -4.029  15.120  0.00  0.00    +0.000 HD
ATOM     13  H   UNL     1      -0.205  -5.168  15.097  0.00  0.00    +0.000 HD
ATOM     14  H   UNL     1       3.415  -8.742  14.064  0.00  0.00    +0.000 HD
ATOM     15  H   UNL     1       2.950  -2.294  15.619  0.00  0.00    +0.000 HD
ATOM     16  H   UNL     1       0.548  -2.862  15.607  0.00  0.00    +0.000 HD
ENDROOT
TORSDOF 0
ENDMDL
MODEL 6
REMARK VINA RESULT:    -4.506     22.711     23.817
REMARK INTER + INTRA:          -4.506
REMARK INTER:                  -4.506
REMARK INTRA:                   0.000
REMARK UNBOUND:                 0.000
REMARK  Name = 798
REMARK  0 active torsions:
REMARK  status: ('A' for Active; 'I' for Inactive)
REMARK                            x       y       z     vdW  Elec       q    Type
REMARK                         _______ _______ _______ _____ _____    ______ ____
ROOT
ATOM      1  N   UNL     1       7.902  14.554   0.357  0.00  0.00    +0.000 N 
ATOM      2  C   UNL     1       7.120  13.660   1.052  0.00  0.00    +0.000 A 
ATOM      3  C   UNL     1       6.700  12.686   0.142  0.00  0.00    +0.000 A 
ATOM      4  C   UNL     1       7.259  13.028  -1.121  0.00  0.00    +0.000 A 
ATOM      5  C   UNL     1       6.753  13.638   2.402  0.00  0.00    +0.000 A 
ATOM      6  C   UNL     1       5.876  11.640   0.600  0.00  0.00    +0.000 A 
ATOM      7  C   UNL     1       7.993  14.181  -0.956  0.00  0.00    +0.000 A 
ATOM      8  C   UNL     1       5.935  12.591   2.834  0.00  0.00    +0.000 A 
ATOM      9  C   UNL     1       5.502  11.605   1.948  0.00  0.00    +0.000 A 
ATOM     10  H   UNL     1       8.346  15.368   0.760  0.00  0.00    +0.000 HD
ATOM     11  H   UNL     1       7.139  12.491  -2.051  0.00  0.00    +0.000 HD
ATOM     12  H   UNL     1       7.090  14.404   3.093  0.00  0.00    +0.000 HD
ATOM     13  H   UNL     1       5.531  10.866  -0.079  0.00  0.00    +0.000 HD
ATOM     14  H   UNL     1       8.571  14.768  -1.657  0.00  0.00    +0.000 HD
ATOM     15  H   UNL     1       5.633  12.544   3.877  0.00  0.00    +0.000 HD
ATOM     16  H   UNL     1       4.866  10.801   2.308  0.00  0.00    +0.000 HD
ENDROOT
TORSDOF 0
ENDMDL
MODEL 7
REMARK VINA RESULT:    -4.495     22.721     23.795
REMARK INTER + INTRA:          -4.495
REMARK INTER:                  -4.495
REMARK INTRA:                   0.000
REMARK UNBOUND:                 0.000
REMARK  Name = 798
REMARK  0 active torsions:
REMARK  status: ('A' for Active; 'I' for Inactive)
REMARK                            x       y       z     vdW  Elec       q    Type
REMARK                         _______ _______ _______ _____ _____    ______ ____
ROOT
ATOM      1  N   UNL     1       6.767  14.186   3.678  0.00  0.00    +0.000 N 
ATOM      2  C   UNL     1       6.621  13.492   2.498  0.00  0.00    +0.000 A 
ATOM      3  C   UNL     1       5.817  12.382   2.769  0.00  0.00    +0.000 A 
ATOM      4  C   UNL     1       5.486  12.436   4.152  0.00  0.00    +0.000 A 
ATOM      5  C   UNL     1       7.134  13.759   1.223  0.00  0.00    +0.000 A 
ATOM      6  C   UNL     1       5.509  11.495   1.719  0.00  0.00    +0.000 A 
ATOM      7  C   UNL     1       6.085  13.555   4.683  0.00  0.00    +0.000 A 
ATOM      8  C   UNL     1       6.815  12.865   0.198  0.00  0.00    +0.000 A 
ATOM      9  C   UNL     1       6.015  11.749   0.439  0.00  0.00    +0.000 A 
ATOM     10  H   UNL     1       7.301  15.037   3.785  0.00  0.00    +0.000 HD
ATOM     11  H   UNL     1       4.877  11.732   4.701  0.00  0.00    +0.000 HD
ATOM     12  H   UNL     1       7.757  14.627   1.033  0.00  0.00    +0.000 HD
ATOM     13  H   UNL     1       4.887  10.623   1.894  0.00  0.00    +0.000 HD
ATOM     14  H   UNL     1       6.086  13.958   5.686  0.00  0.00    +0.000 HD
ATOM     15  H   UNL     1       7.198  13.043  -0.805  0.00  0.00    +0.000 HD
ATOM     16  H   UNL     1       5.781  11.069  -0.375  0.00  0.00    +0.000 HD
ENDROOT
TORSDOF 0
ENDMDL
MODEL 8
REMARK VINA RESULT:    -4.436      1.839      2.889
REMARK INTER + INTRA:          -4.436
REMARK INTER:                  -4.436
REMARK INTRA:                   0.000
REMARK UNBOUND:                 0.000
REMARK  Name = 798
REMARK  0 active torsions:
REMARK  status: ('A' for Active; 'I' for Inactive)
REMARK                            x       y       z     vdW  Elec       q    Type
REMARK                         _______ _______ _______ _____ _____    ______ ____
ROOT
ATOM      1  N   UNL     1       9.817 -12.368  -2.846  0.00  0.00    +0.000 N 
ATOM      2  C   UNL     1       9.909 -11.225  -2.085  0.00  0.00    +0.000 A 
ATOM      3  C   UNL     1      10.989 -10.488  -2.578  0.00  0.00    +0.000 A 
ATOM      4  C   UNL     1      11.540 -11.230  -3.660  0.00  0.00    +0.000 A 
ATOM      5  C   UNL     1       9.127 -10.790  -1.009  0.00  0.00    +0.000 A 
ATOM      6  C   UNL     1      11.305  -9.258  -1.968  0.00  0.00    +0.000 A 
ATOM      7  C   UNL     1      10.798 -12.381  -3.800  0.00  0.00    +0.000 A 
ATOM      8  C   UNL     1       9.459  -9.567  -0.421  0.00  0.00    +0.000 A 
ATOM      9  C   UNL     1      10.531  -8.810  -0.892  0.00  0.00    +0.000 A 
ATOM     10  H   UNL     1       9.124 -13.094  -2.718  0.00  0.00    +0.000 HD
ATOM     11  H   UNL     1      12.388 -10.954  -4.271  0.00  0.00    +0.000 HD
ATOM     12  H   UNL     1       8.292 -11.377  -0.641  0.00  0.00    +0.000 HD
ATOM     13  H   UNL     1      12.137  -8.659  -2.326  0.00  0.00    +0.000 HD
ATOM     14  H   UNL     1      10.882 -13.206  -4.493  0.00  0.00    +0.000 HD
ATOM     15  H   UNL     1       8.872  -9.200   0.417  0.00  0.00    +0.000 HD
ATOM     16  H   UNL     1      10.770  -7.862  -0.418  0.00  0.00    +0.000 HD
ENDROOT
TORSDOF 0
ENDMDL
MODEL 9
REMARK VINA RESULT:    -4.399     18.042     19.036
REMARK INTER + INTRA:          -4.399
REMARK INTER:                  -4.399
REMARK INTRA:                   0.000
REMARK UNBOUND:                 0.000
REMARK  Name = 798
REMARK  0 active torsions:
REMARK  status: ('A' for Active; 'I' for Inactive)
REMARK                            x       y       z     vdW  Elec       q    Type
REMARK                         _______ _______ _______ _____ _____    ______ ____
ROOT
ATOM      1  N   UNL     1       2.705  -8.500  15.608  0.00  0.00    +0.000 N 
ATOM      2  C   UNL     1       1.577  -7.863  16.073  0.00  0.00    +0.000 A 
ATOM      3  C   UNL     1       1.303  -6.815  15.190  0.00  0.00    +0.000 A 
ATOM      4  C   UNL     1       2.306  -6.847  14.181  0.00  0.00    +0.000 A 
ATOM      5  C   UNL     1       0.786  -8.130  17.195  0.00  0.00    +0.000 A 
ATOM      6  C   UNL     1       0.186  -5.994  15.439  0.00  0.00    +0.000 A 
ATOM      7  C   UNL     1       3.153  -7.894  14.465  0.00  0.00    +0.000 A 
ATOM      8  C   UNL     1      -0.317  -7.302  17.421  0.00  0.00    +0.000 A 
ATOM      9  C   UNL     1      -0.615  -6.249  16.557  0.00  0.00    +0.000 A 
ATOM     10  H   UNL     1       3.139  -9.300  16.047  0.00  0.00    +0.000 HD
ATOM     11  H   UNL     1       2.400  -6.177  13.338  0.00  0.00    +0.000 HD
ATOM     12  H   UNL     1       1.015  -8.949  17.868  0.00  0.00    +0.000 HD
ATOM     13  H   UNL     1      -0.057  -5.170  14.773  0.00  0.00    +0.000 HD
ATOM     14  H   UNL     1       4.034  -8.260  13.956  0.00  0.00    +0.000 HD
ATOM     15  H   UNL     1      -0.953  -7.483  18.285  0.00  0.00    +0.000 HD
ATOM     16  H   UNL     1      -1.478  -5.619  16.754  0.00  0.00    +0.000 HD
ENDROOT
TORSDOF 0
ENDMDL
MODEL 10
REMARK VINA RESULT:    -4.384      6.591      8.076
REMARK INTER + INTRA:          -4.384
REMARK INTER:                  -4.384
REMARK INTRA:                   0.000
REMARK UNBOUND:                 0.000
REMARK  Name = 798
REMARK  0 active torsions:
REMARK  status: ('A' for Active; 'I' for Inactive)
REMARK                            x       y       z     vdW  Elec       q    Type
REMARK                         _______ _______ _______ _____ _____    ______ ____
ROOT
ATOM      1  N   UNL     1       4.236 -12.593   1.233  0.00  0.00    +0.000 N 
ATOM      2  C   UNL     1       4.116 -13.737   1.988  0.00  0.00    +0.000 A 
ATOM      3  C   UNL     1       3.117 -13.502   2.937  0.00  0.00    +0.000 A 
ATOM      4  C   UNL     1       2.645 -12.176   2.724  0.00  0.00    +0.000 A 
ATOM      5  C   UNL     1       4.806 -14.952   1.905  0.00  0.00    +0.000 A 
ATOM      6  C   UNL     1       2.792 -14.526   3.847  0.00  0.00    +0.000 A 
ATOM      7  C   UNL     1       3.352 -11.643   1.670  0.00  0.00    +0.000 A 
ATOM      8  C   UNL     1       4.465 -15.953   2.818  0.00  0.00    +0.000 A 
ATOM      9  C   UNL     1       3.474 -15.746   3.776  0.00  0.00    +0.000 A 
ATOM     10  H   UNL     1       4.885 -12.471   0.467  0.00  0.00    +0.000 HD
ATOM     11  H   UNL     1       1.872 -11.666   3.280  0.00  0.00    +0.000 HD
ATOM     12  H   UNL     1       5.578 -15.115   1.161  0.00  0.00    +0.000 HD
ATOM     13  H   UNL     1       2.021 -14.377   4.597  0.00  0.00    +0.000 HD
ATOM     14  H   UNL     1       3.304 -10.674   1.193  0.00  0.00    +0.000 HD
ATOM     15  H   UNL     1       4.983 -16.909   2.781  0.00  0.00    +0.000 HD
ATOM     16  H   UNL     1       3.227 -16.539   4.475  0.00  0.00    +0.000 HD
ENDROOT
TORSDOF 0
ENDMDL
