MODEL 1
REMARK VINA RESULT:    -4.250      0.000      0.000
REMARK INTER + INTRA:          -5.189
REMARK INTER:                  -5.111
REMARK INTRA:                  -0.077
REMARK UNBOUND:                -0.069
REMARK  Name = 10430
REMARK  5 active torsions:
REMARK  status: ('A' for Active; 'I' for Inactive)
REMARK    1  A    between atoms: O_1  and  C_7
REMARK    2  A    between atoms: C_3  and  C_4
REMARK    3  A    between atoms: C_3  and  C_5
REMARK    4  A    between atoms: C_3  and  C_6
REMARK    5  A    between atoms: C_4  and  C_7
REMARK                            x       y       z     vdW  Elec       q    Type
REMARK                         _______ _______ _______ _____ _____    ______ ____
ROOT
ATOM      1  C   UNL     1       1.290  -4.483  15.055  0.00  0.00    +0.000 C 
ATOM      2  H   UNL     1       0.596  -3.864  14.474  0.00  0.00    +0.000 HD
ENDROOT
BRANCH   1   3
ATOM      3  C   UNL     1       0.491  -5.195  16.148  0.00  0.00    +0.000 C 
ATOM      4  H   UNL     1      -0.195  -4.511  16.658  0.00  0.00    +0.000 HD
ATOM      5  H   UNL     1       1.151  -5.641  16.900  0.00  0.00    +0.000 HD
ATOM      6  H   UNL     1      -0.118  -5.999  15.718  0.00  0.00    +0.000 HD
ENDBRANCH   1   3
BRANCH   1   7
ATOM      7  C   UNL     1       1.911  -5.515  14.111  0.00  0.00    +0.000 C 
ATOM      8  H   UNL     1       1.138  -6.095  13.593  0.00  0.00    +0.000 HD
ATOM      9  H   UNL     1       2.534  -5.026  13.354  0.00  0.00    +0.000 HD
ATOM     10  H   UNL     1       2.544  -6.215  14.667  0.00  0.00    +0.000 HD
ENDBRANCH   1   7
BRANCH   1  11
ATOM     11  C   UNL     1       2.363  -3.585  15.690  0.00  0.00    +0.000 C 
ATOM     12  H   UNL     1       3.240  -4.174  15.987  0.00  0.00    +0.000 HD
ATOM     13  H   UNL     1       1.977  -3.117  16.604  0.00  0.00    +0.000 HD
BRANCH  11  15
ATOM     14  O   UNL     1       3.991  -2.212  14.498  0.00  0.00    +0.000 OA
ATOM     15  C   UNL     1       2.831  -2.480  14.772  0.00  0.00    +0.000 C 
BRANCH  15  16
ATOM     16  O   UNL     1       1.764  -1.826  14.247  0.00  0.00    +0.000 OA
ATOM     17  H   UNL     1       1.040  -1.724  14.900  0.00  0.00    +0.000 HD
ENDBRANCH  15  16
ENDBRANCH  11  15
ENDBRANCH   1  11
TORSDOF 5
ENDMDL
MODEL 2
REMARK VINA RESULT:    -4.066     14.587     15.307
REMARK INTER + INTRA:          -4.967
REMARK INTER:                  -4.919
REMARK INTRA:                  -0.049
REMARK UNBOUND:                -0.069
REMARK  Name = 10430
REMARK  5 active torsions:
REMARK  status: ('A' for Active; 'I' for Inactive)
REMARK    1  A    between atoms: O_1  and  C_7
REMARK    2  A    between atoms: C_3  and  C_4
REMARK    3  A    between atoms: C_3  and  C_5
REMARK    4  A    between atoms: C_3  and  C_6
REMARK    5  A    between atoms: C_4  and  C_7
REMARK                            x       y       z     vdW  Elec       q    Type
REMARK                         _______ _______ _______ _____ _____    ______ ____
ROOT
ATOM      1  C   UNL     1       4.301  -2.573  -0.794  0.00  0.00    +0.000 C 
ATOM      2  H   UNL     1       4.839  -1.682  -0.450  0.00  0.00    +0.000 HD
ENDROOT
BRANCH   1   3
ATOM      3  C   UNL     1       2.837  -2.188  -1.019  0.00  0.00    +0.000 C 
ATOM      4  H   UNL     1       2.532  -1.364  -0.366  0.00  0.00    +0.000 HD
ATOM      5  H   UNL     1       2.168  -3.036  -0.836  0.00  0.00    +0.000 HD
ATOM      6  H   UNL     1       2.681  -1.855  -2.051  0.00  0.00    +0.000 HD
ENDBRANCH   1   3
BRANCH   1   7
ATOM      7  C   UNL     1       4.926  -3.026  -2.115  0.00  0.00    +0.000 C 
ATOM      8  H   UNL     1       6.020  -2.970  -2.076  0.00  0.00    +0.000 HD
ATOM      9  H   UNL     1       4.646  -4.060  -2.346  0.00  0.00    +0.000 HD
ATOM     10  H   UNL     1       4.584  -2.393  -2.941  0.00  0.00    +0.000 HD
ENDBRANCH   1   7
BRANCH   1  11
ATOM     11  C   UNL     1       4.396  -3.670   0.278  0.00  0.00    +0.000 C 
ATOM     12  H   UNL     1       4.409  -4.666  -0.182  0.00  0.00    +0.000 HD
ATOM     13  H   UNL     1       3.517  -3.640   0.933  0.00  0.00    +0.000 HD
BRANCH  11  15
ATOM     14  O   UNL     1       6.766  -3.838   0.835  0.00  0.00    +0.000 OA
ATOM     15  C   UNL     1       5.623  -3.542   1.150  0.00  0.00    +0.000 C 
BRANCH  15  16
ATOM     16  O   UNL     1       5.288  -3.007   2.352  0.00  0.00    +0.000 OA
ATOM     17  H   UNL     1       5.985  -2.407   2.692  0.00  0.00    +0.000 HD
ENDBRANCH  15  16
ENDBRANCH  11  15
ENDBRANCH   1  11
TORSDOF 5
ENDMDL
MODEL 3
REMARK VINA RESULT:    -3.661     15.953     16.641
REMARK INTER + INTRA:          -4.479
REMARK INTER:                  -4.424
REMARK INTRA:                  -0.055
REMARK UNBOUND:                -0.069
REMARK  Name = 10430
REMARK  5 active torsions:
REMARK  status: ('A' for Active; 'I' for Inactive)
REMARK    1  A    between atoms: O_1  and  C_7
REMARK    2  A    between atoms: C_3  and  C_4
REMARK    3  A    between atoms: C_3  and  C_5
REMARK    4  A    between atoms: C_3  and  C_6
REMARK    5  A    between atoms: C_4  and  C_7
REMARK                            x       y       z     vdW  Elec       q    Type
REMARK                         _______ _______ _______ _____ _____    ______ ____
ROOT
ATOM      1  C   UNL     1       4.010  -3.153  -0.556  0.00  0.00    +0.000 C 
ATOM      2  H   UNL     1       3.826  -4.105  -1.069  0.00  0.00    +0.000 HD
ENDROOT
BRANCH   1   3
ATOM      3  C   UNL     1       2.884  -2.186  -0.928  0.00  0.00    +0.000 C 
ATOM      4  H   UNL     1       2.462  -2.418  -1.911  0.00  0.00    +0.000 HD
ATOM      5  H   UNL     1       3.236  -1.149  -0.943  0.00  0.00    +0.000 HD
ATOM      6  H   UNL     1       2.065  -2.252  -0.203  0.00  0.00    +0.000 HD
ENDBRANCH   1   3
BRANCH   1   7
ATOM      7  C   UNL     1       3.990  -3.415   0.952  0.00  0.00    +0.000 C 
ATOM      8  H   UNL     1       3.018  -3.155   1.388  0.00  0.00    +0.000 HD
ATOM      9  H   UNL     1       4.188  -4.471   1.168  0.00  0.00    +0.000 HD
ATOM     10  H   UNL     1       4.758  -2.820   1.458  0.00  0.00    +0.000 HD
ENDBRANCH   1   7
BRANCH   1  11
ATOM     11  C   UNL     1       5.363  -2.583  -1.009  0.00  0.00    +0.000 C 
ATOM     12  H   UNL     1       6.097  -2.623  -0.194  0.00  0.00    +0.000 HD
ATOM     13  H   UNL     1       5.258  -1.527  -1.284  0.00  0.00    +0.000 HD
BRANCH  11  15
ATOM     14  O   UNL     1       5.942  -2.920  -3.355  0.00  0.00    +0.000 OA
ATOM     15  C   UNL     1       5.944  -3.311  -2.198  0.00  0.00    +0.000 C 
BRANCH  15  16
ATOM     16  O   UNL     1       6.517  -4.476  -1.799  0.00  0.00    +0.000 OA
ATOM     17  H   UNL     1       7.470  -4.512  -2.029  0.00  0.00    +0.000 HD
ENDBRANCH  15  16
ENDBRANCH  11  15
ENDBRANCH   1  11
TORSDOF 5
ENDMDL
MODEL 4
REMARK VINA RESULT:    -3.619     14.920     15.676
REMARK INTER + INTRA:          -4.429
REMARK INTER:                  -4.354
REMARK INTRA:                  -0.075
REMARK UNBOUND:                -0.069
REMARK  Name = 10430
REMARK  5 active torsions:
REMARK  status: ('A' for Active; 'I' for Inactive)
REMARK    1  A    between atoms: O_1  and  C_7
REMARK    2  A    between atoms: C_3  and  C_4
REMARK    3  A    between atoms: C_3  and  C_5
REMARK    4  A    between atoms: C_3  and  C_6
REMARK    5  A    between atoms: C_4  and  C_7
REMARK                            x       y       z     vdW  Elec       q    Type
REMARK                         _______ _______ _______ _____ _____    ______ ____
ROOT
ATOM      1  C   UNL     1       4.887  -3.280  -0.510  0.00  0.00    +0.000 C 
ATOM      2  H   UNL     1       5.008  -4.250  -1.006  0.00  0.00    +0.000 HD
ENDROOT
BRANCH   1   3
ATOM      3  C   UNL     1       3.902  -2.445  -1.331  0.00  0.00    +0.000 C 
ATOM      4  H   UNL     1       3.864  -1.408  -0.984  0.00  0.00    +0.000 HD
ATOM      5  H   UNL     1       2.889  -2.860  -1.283  0.00  0.00    +0.000 HD
ATOM      6  H   UNL     1       4.204  -2.421  -2.385  0.00  0.00    +0.000 HD
ENDBRANCH   1   3
BRANCH   1   7
ATOM      7  C   UNL     1       4.314  -3.529   0.888  0.00  0.00    +0.000 C 
ATOM      8  H   UNL     1       3.549  -4.314   0.869  0.00  0.00    +0.000 HD
ATOM      9  H   UNL     1       5.103  -3.838   1.583  0.00  0.00    +0.000 HD
ATOM     10  H   UNL     1       3.855  -2.617   1.285  0.00  0.00    +0.000 HD
ENDBRANCH   1   7
BRANCH   1  11
ATOM     11  C   UNL     1       6.247  -2.569  -0.441  0.00  0.00    +0.000 C 
ATOM     12  H   UNL     1       6.174  -1.638   0.135  0.00  0.00    +0.000 HD
ATOM     13  H   UNL     1       6.582  -2.289  -1.447  0.00  0.00    +0.000 HD
BRANCH  11  15
ATOM     14  O   UNL     1       7.630  -4.558  -0.146  0.00  0.00    +0.000 OA
ATOM     15  C   UNL     1       7.330  -3.420   0.181  0.00  0.00    +0.000 C 
BRANCH  15  16
ATOM     16  O   UNL     1       7.967  -2.725   1.157  0.00  0.00    +0.000 OA
ATOM     17  H   UNL     1       8.698  -3.243   1.557  0.00  0.00    +0.000 HD
ENDBRANCH  15  16
ENDBRANCH  11  15
ENDBRANCH   1  11
TORSDOF 5
ENDMDL
MODEL 5
REMARK VINA RESULT:    -3.604      3.082      3.881
REMARK INTER + INTRA:          -4.411
REMARK INTER:                  -4.362
REMARK INTRA:                  -0.049
REMARK UNBOUND:                -0.069
REMARK  Name = 10430
REMARK  5 active torsions:
REMARK  status: ('A' for Active; 'I' for Inactive)
REMARK    1  A    between atoms: O_1  and  C_7
REMARK    2  A    between atoms: C_3  and  C_4
REMARK    3  A    between atoms: C_3  and  C_5
REMARK    4  A    between atoms: C_3  and  C_6
REMARK    5  A    between atoms: C_4  and  C_7
REMARK                            x       y       z     vdW  Elec       q    Type
REMARK                         _______ _______ _______ _____ _____    ______ ____
ROOT
ATOM      1  C   UNL     1       1.997  -4.391  15.415  0.00  0.00    +0.000 C 
ATOM      2  H   UNL     1       2.344  -4.927  14.523  0.00  0.00    +0.000 HD
ENDROOT
BRANCH   1   3
ATOM      3  C   UNL     1       3.015  -4.619  16.534  0.00  0.00    +0.000 C 
ATOM      4  H   UNL     1       4.042  -4.594  16.156  0.00  0.00    +0.000 HD
ATOM      5  H   UNL     1       2.856  -5.584  17.028  0.00  0.00    +0.000 HD
ATOM      6  H   UNL     1       2.933  -3.835  17.295  0.00  0.00    +0.000 HD
ENDBRANCH   1   3
BRANCH   1   7
ATOM      7  C   UNL     1       1.927  -2.900  15.075  0.00  0.00    +0.000 C 
ATOM      8  H   UNL     1       0.995  -2.655  14.551  0.00  0.00    +0.000 HD
ATOM      9  H   UNL     1       1.976  -2.290  15.984  0.00  0.00    +0.000 HD
ATOM     10  H   UNL     1       2.764  -2.611  14.431  0.00  0.00    +0.000 HD
ENDBRANCH   1   7
BRANCH   1  11
ATOM     11  C   UNL     1       0.624  -4.937  15.834  0.00  0.00    +0.000 C 
ATOM     12  H   UNL     1      -0.181  -4.271  15.499  0.00  0.00    +0.000 HD
ATOM     13  H   UNL     1       0.552  -4.988  16.928  0.00  0.00    +0.000 HD
BRANCH  11  15
ATOM     14  O   UNL     1       1.136  -7.034  14.697  0.00  0.00    +0.000 OA
ATOM     15  C   UNL     1       0.344  -6.318  15.291  0.00  0.00    +0.000 C 
BRANCH  15  16
ATOM     16  O   UNL     1      -0.929  -6.688  15.587  0.00  0.00    +0.000 OA
ATOM     17  H   UNL     1      -1.009  -7.018  16.507  0.00  0.00    +0.000 HD
ENDBRANCH  15  16
ENDBRANCH  11  15
ENDBRANCH   1  11
TORSDOF 5
ENDMDL
MODEL 6
REMARK VINA RESULT:    -3.457     15.754     16.422
REMARK INTER + INTRA:          -4.233
REMARK INTER:                  -4.182
REMARK INTRA:                  -0.051
REMARK UNBOUND:                -0.069
REMARK  Name = 10430
REMARK  5 active torsions:
REMARK  status: ('A' for Active; 'I' for Inactive)
REMARK    1  A    between atoms: O_1  and  C_7
REMARK    2  A    between atoms: C_3  and  C_4
REMARK    3  A    between atoms: C_3  and  C_5
REMARK    4  A    between atoms: C_3  and  C_6
REMARK    5  A    between atoms: C_4  and  C_7
REMARK                            x       y       z     vdW  Elec       q    Type
REMARK                         _______ _______ _______ _____ _____    ______ ____
ROOT
ATOM      1  C   UNL     1      -6.728 -13.644   6.089  0.00  0.00    +0.000 C 
ATOM      2  H   UNL     1      -6.973 -14.422   5.355  0.00  0.00    +0.000 HD
ENDROOT
BRANCH   1   3
ATOM      3  C   UNL     1      -7.357 -14.037   7.427  0.00  0.00    +0.000 C 
ATOM      4  H   UNL     1      -6.698 -13.801   8.268  0.00  0.00    +0.000 HD
ATOM      5  H   UNL     1      -7.586 -15.108   7.462  0.00  0.00    +0.000 HD
ATOM      6  H   UNL     1      -8.293 -13.489   7.589  0.00  0.00    +0.000 HD
ENDBRANCH   1   3
BRANCH   1   7
ATOM      7  C   UNL     1      -5.205 -13.587   6.230  0.00  0.00    +0.000 C 
ATOM      8  H   UNL     1      -4.899 -13.695   7.277  0.00  0.00    +0.000 HD
ATOM      9  H   UNL     1      -4.729 -14.386   5.651  0.00  0.00    +0.000 HD
ATOM     10  H   UNL     1      -4.820 -12.630   5.862  0.00  0.00    +0.000 HD
ENDBRANCH   1   7
BRANCH   1  11
ATOM     11  C   UNL     1      -7.300 -12.299   5.615  0.00  0.00    +0.000 C 
ATOM     12  H   UNL     1      -6.575 -11.490   5.768  0.00  0.00    +0.000 HD
ATOM     13  H   UNL     1      -8.191 -12.037   6.199  0.00  0.00    +0.000 HD
BRANCH  11  15
ATOM     14  O   UNL     1      -7.432 -13.176   3.341  0.00  0.00    +0.000 OA
ATOM     15  C   UNL     1      -7.694 -12.304   4.156  0.00  0.00    +0.000 C 
BRANCH  15  16
ATOM     16  O   UNL     1      -8.427 -11.198   3.867  0.00  0.00    +0.000 OA
ATOM     17  H   UNL     1      -9.302 -11.214   4.308  0.00  0.00    +0.000 HD
ENDBRANCH  15  16
ENDBRANCH  11  15
ENDBRANCH   1  11
TORSDOF 5
ENDMDL
MODEL 7
REMARK VINA RESULT:    -3.376     16.541     17.374
REMARK INTER + INTRA:          -4.136
REMARK INTER:                  -4.080
REMARK INTRA:                  -0.056
REMARK UNBOUND:                -0.069
REMARK  Name = 10430
REMARK  5 active torsions:
REMARK  status: ('A' for Active; 'I' for Inactive)
REMARK    1  A    between atoms: O_1  and  C_7
REMARK    2  A    between atoms: C_3  and  C_4
REMARK    3  A    between atoms: C_3  and  C_5
REMARK    4  A    between atoms: C_3  and  C_6
REMARK    5  A    between atoms: C_4  and  C_7
REMARK                            x       y       z     vdW  Elec       q    Type
REMARK                         _______ _______ _______ _____ _____    ______ ____
ROOT
ATOM      1  C   UNL     1       9.659  -2.174  -1.485  0.00  0.00    +0.000 C 
ATOM      2  H   UNL     1      10.302  -2.378  -0.620  0.00  0.00    +0.000 HD
ENDROOT
BRANCH   1   3
ATOM      3  C   UNL     1       9.938  -0.746  -1.960  0.00  0.00    +0.000 C 
ATOM      4  H   UNL     1      10.395  -0.141  -1.170  0.00  0.00    +0.000 HD
ATOM      5  H   UNL     1       9.019  -0.247  -2.286  0.00  0.00    +0.000 HD
ATOM      6  H   UNL     1      10.635  -0.752  -2.805  0.00  0.00    +0.000 HD
ENDBRANCH   1   3
BRANCH   1   7
ATOM      7  C   UNL     1      10.021  -3.168  -2.591  0.00  0.00    +0.000 C 
ATOM      8  H   UNL     1      10.261  -2.650  -3.527  0.00  0.00    +0.000 HD
ATOM      9  H   UNL     1      10.889  -3.772  -2.304  0.00  0.00    +0.000 HD
ATOM     10  H   UNL     1       9.187  -3.850  -2.785  0.00  0.00    +0.000 HD
ENDBRANCH   1   7
BRANCH   1  11
ATOM     11  C   UNL     1       8.186  -2.310  -1.068  0.00  0.00    +0.000 C 
ATOM     12  H   UNL     1       7.628  -2.914  -1.794  0.00  0.00    +0.000 HD
ATOM     13  H   UNL     1       7.704  -1.325  -1.044  0.00  0.00    +0.000 HD
BRANCH  11  15
ATOM     14  O   UNL     1       7.685  -4.095   0.519  0.00  0.00    +0.000 OA
ATOM     15  C   UNL     1       8.012  -2.939   0.295  0.00  0.00    +0.000 C 
BRANCH  15  16
ATOM     16  O   UNL     1       8.306  -2.038   1.266  0.00  0.00    +0.000 OA
ATOM     17  H   UNL     1       8.394  -2.464   2.145  0.00  0.00    +0.000 HD
ENDBRANCH  15  16
ENDBRANCH  11  15
ENDBRANCH   1  11
TORSDOF 5
ENDMDL
MODEL 8
REMARK VINA RESULT:    -3.274     14.743     15.494
REMARK INTER + INTRA:          -4.014
REMARK INTER:                  -3.982
REMARK INTRA:                  -0.032
REMARK UNBOUND:                -0.069
REMARK  Name = 10430
REMARK  5 active torsions:
REMARK  status: ('A' for Active; 'I' for Inactive)
REMARK    1  A    between atoms: O_1  and  C_7
REMARK    2  A    between atoms: C_3  and  C_4
REMARK    3  A    between atoms: C_3  and  C_5
REMARK    4  A    between atoms: C_3  and  C_6
REMARK    5  A    between atoms: C_4  and  C_7
REMARK                            x       y       z     vdW  Elec       q    Type
REMARK                         _______ _______ _______ _____ _____    ______ ____
ROOT
ATOM      1  C   UNL     1      -0.814  10.906  11.901  0.00  0.00    +0.000 C 
ATOM      2  H   UNL     1      -0.987  10.980  12.981  0.00  0.00    +0.000 HD
ENDROOT
BRANCH   1   3
ATOM      3  C   UNL     1      -0.970  12.303  11.297  0.00  0.00    +0.000 C 
ATOM      4  H   UNL     1      -0.050  12.888  11.390  0.00  0.00    +0.000 HD
ATOM      5  H   UNL     1      -1.779  12.860  11.782  0.00  0.00    +0.000 HD
ATOM      6  H   UNL     1      -1.202  12.237  10.228  0.00  0.00    +0.000 HD
ENDBRANCH   1   3
BRANCH   1   7
ATOM      7  C   UNL     1       0.615  10.404  11.681  0.00  0.00    +0.000 C 
ATOM      8  H   UNL     1       1.060  10.852  10.785  0.00  0.00    +0.000 HD
ATOM      9  H   UNL     1       1.251  10.651  12.538  0.00  0.00    +0.000 HD
ATOM     10  H   UNL     1       0.627   9.315  11.557  0.00  0.00    +0.000 HD
ENDBRANCH   1   7
BRANCH   1  11
ATOM     11  C   UNL     1      -1.847   9.949  11.284  0.00  0.00    +0.000 C 
ATOM     12  H   UNL     1      -1.571   8.904  11.471  0.00  0.00    +0.000 HD
ATOM     13  H   UNL     1      -1.879  10.075  10.195  0.00  0.00    +0.000 HD
BRANCH  11  15
ATOM     14  O   UNL     1      -3.650   9.866  12.926  0.00  0.00    +0.000 OA
ATOM     15  C   UNL     1      -3.245  10.166  11.813  0.00  0.00    +0.000 C 
BRANCH  15  16
ATOM     16  O   UNL     1      -4.008  10.785  10.876  0.00  0.00    +0.000 OA
ATOM     17  H   UNL     1      -3.535  10.877  10.022  0.00  0.00    +0.000 HD
ENDBRANCH  15  16
ENDBRANCH  11  15
ENDBRANCH   1  11
TORSDOF 5
ENDMDL
MODEL 9
REMARK VINA RESULT:    -3.218      2.826      3.615
REMARK INTER + INTRA:          -3.945
REMARK INTER:                  -3.873
REMARK INTRA:                  -0.073
REMARK UNBOUND:                -0.069
REMARK  Name = 10430
REMARK  5 active torsions:
REMARK  status: ('A' for Active; 'I' for Inactive)
REMARK    1  A    between atoms: O_1  and  C_7
REMARK    2  A    between atoms: C_3  and  C_4
REMARK    3  A    between atoms: C_3  and  C_5
REMARK    4  A    between atoms: C_3  and  C_6
REMARK    5  A    between atoms: C_4  and  C_7
REMARK                            x       y       z     vdW  Elec       q    Type
REMARK                         _______ _______ _______ _____ _____    ______ ____
ROOT
ATOM      1  C   UNL     1       1.867  -4.577  15.346  0.00  0.00    +0.000 C 
ATOM      2  H   UNL     1       2.683  -4.907  16.001  0.00  0.00    +0.000 HD
ENDROOT
BRANCH   1   3
ATOM      3  C   UNL     1       0.541  -4.931  16.021  0.00  0.00    +0.000 C 
ATOM      4  H   UNL     1       0.078  -5.810  15.563  0.00  0.00    +0.000 HD
ATOM      5  H   UNL     1      -0.171  -4.100  15.964  0.00  0.00    +0.000 HD
ATOM      6  H   UNL     1       0.699  -5.166  17.080  0.00  0.00    +0.000 HD
ENDBRANCH   1   3
BRANCH   1   7
ATOM      7  C   UNL     1       1.976  -3.059  15.183  0.00  0.00    +0.000 C 
ATOM      8  H   UNL     1       0.996  -2.577  15.285  0.00  0.00    +0.000 HD
ATOM      9  H   UNL     1       2.646  -2.632  15.938  0.00  0.00    +0.000 HD
ATOM     10  H   UNL     1       2.377  -2.804  14.196  0.00  0.00    +0.000 HD
ENDBRANCH   1   7
BRANCH   1  11
ATOM     11  C   UNL     1       1.977  -5.296  13.993  0.00  0.00    +0.000 C 
ATOM     12  H   UNL     1       2.536  -4.688  13.271  0.00  0.00    +0.000 HD
ATOM     13  H   UNL     1       0.980  -5.454  13.564  0.00  0.00    +0.000 HD
BRANCH  11  15
ATOM     14  O   UNL     1       2.418  -7.620  13.396  0.00  0.00    +0.000 OA
ATOM     15  C   UNL     1       2.652  -6.644  14.092  0.00  0.00    +0.000 C 
BRANCH  15  16
ATOM     16  O   UNL     1       3.605  -6.620  15.059  0.00  0.00    +0.000 OA
ATOM     17  H   UNL     1       4.484  -6.374  14.700  0.00  0.00    +0.000 HD
ENDBRANCH  15  16
ENDBRANCH  11  15
ENDBRANCH   1  11
TORSDOF 5
ENDMDL
MODEL 10
REMARK VINA RESULT:    -3.190     16.471     17.699
REMARK INTER + INTRA:          -3.912
REMARK INTER:                  -3.843
REMARK INTRA:                  -0.069
REMARK UNBOUND:                -0.069
REMARK  Name = 10430
REMARK  5 active torsions:
REMARK  status: ('A' for Active; 'I' for Inactive)
REMARK    1  A    between atoms: O_1  and  C_7
REMARK    2  A    between atoms: C_3  and  C_4
REMARK    3  A    between atoms: C_3  and  C_5
REMARK    4  A    between atoms: C_3  and  C_6
REMARK    5  A    between atoms: C_4  and  C_7
REMARK                            x       y       z     vdW  Elec       q    Type
REMARK                         _______ _______ _______ _____ _____    ______ ____
ROOT
ATOM      1  C   UNL     1       7.230 -12.376  -0.531  0.00  0.00    +0.000 C 
ATOM      2  H   UNL     1       6.270 -12.275  -1.052  0.00  0.00    +0.000 HD
ENDROOT
BRANCH   1   3
ATOM      3  C   UNL     1       8.137 -13.275  -1.376  0.00  0.00    +0.000 C 
ATOM      4  H   UNL     1       8.815 -12.688  -2.002  0.00  0.00    +0.000 HD
ATOM      5  H   UNL     1       7.552 -13.932  -2.027  0.00  0.00    +0.000 HD
ATOM      6  H   UNL     1       8.759 -13.907  -0.732  0.00  0.00    +0.000 HD
ENDBRANCH   1   3
BRANCH   1   7
ATOM      7  C   UNL     1       7.852 -10.983  -0.408  0.00  0.00    +0.000 C 
ATOM      8  H   UNL     1       7.382 -10.408   0.399  0.00  0.00    +0.000 HD
ATOM      9  H   UNL     1       8.925 -11.052  -0.197  0.00  0.00    +0.000 HD
ATOM     10  H   UNL     1       7.729 -10.421  -1.340  0.00  0.00    +0.000 HD
ENDBRANCH   1   7
BRANCH   1  11
ATOM     11  C   UNL     1       6.998 -13.012   0.848  0.00  0.00    +0.000 C 
ATOM     12  H   UNL     1       7.891 -12.918   1.477  0.00  0.00    +0.000 HD
ATOM     13  H   UNL     1       6.799 -14.086   0.744  0.00  0.00    +0.000 HD
BRANCH  11  15
ATOM     14  O   UNL     1       4.724 -12.173   1.136  0.00  0.00    +0.000 OA
ATOM     15  C   UNL     1       5.834 -12.401   1.593  0.00  0.00    +0.000 C 
BRANCH  15  16
ATOM     16  O   UNL     1       6.180 -12.161   2.884  0.00  0.00    +0.000 OA
ATOM     17  H   UNL     1       7.150 -12.219   3.019  0.00  0.00    +0.000 HD
ENDBRANCH  15  16
ENDBRANCH  11  15
ENDBRANCH   1  11
TORSDOF 5
ENDMDL
