MODEL 1
REMARK VINA RESULT:    -5.531      0.000      0.000
REMARK INTER + INTRA:          -6.331
REMARK INTER:                  -6.180
REMARK INTRA:                  -0.151
REMARK UNBOUND:                -0.154
REMARK  Name = 22311
REMARK  3 active torsions:
REMARK  status: ('A' for Active; 'I' for Inactive)
REMARK    1  A    between atoms: C_1  and  C_7
REMARK    2  A    between atoms: C_5  and  C_8
REMARK    3  A    between atoms: C_7  and  C_9
REMARK                            x       y       z     vdW  Elec       q    Type
REMARK                         _______ _______ _______ _____ _____    ______ ____
ROOT
ATOM      1  C   UNL     1       5.260  -2.397  -1.074  0.00  0.00    +0.000 C 
ATOM      2  C   UNL     1       6.383  -2.778  -0.112  0.00  0.00    +0.000 C 
ATOM      3  C   UNL     1       5.461  -3.061  -2.440  0.00  0.00    +0.000 C 
ATOM      4  C   UNL     1       7.749  -2.367  -0.668  0.00  0.00    +0.000 C 
ATOM      5  C   UNL     1       7.921  -2.676  -2.135  0.00  0.00    +0.000 C 
ATOM      6  C   UNL     1       6.881  -3.004  -2.920  0.00  0.00    +0.000 C 
ATOM      7  H   UNL     1       5.283  -1.307  -1.212  0.00  0.00    +0.000 HD
ATOM      8  H   UNL     1       6.402  -3.862   0.066  0.00  0.00    +0.000 HD
ATOM      9  H   UNL     1       6.237  -2.304   0.867  0.00  0.00    +0.000 HD
ATOM     10  H   UNL     1       4.821  -2.558  -3.176  0.00  0.00    +0.000 HD
ATOM     11  H   UNL     1       5.164  -4.117  -2.444  0.00  0.00    +0.000 HD
ATOM     12  H   UNL     1       8.528  -2.874  -0.085  0.00  0.00    +0.000 HD
ATOM     13  H   UNL     1       7.890  -1.288  -0.523  0.00  0.00    +0.000 HD
ATOM     14  H   UNL     1       7.048  -3.239  -3.967  0.00  0.00    +0.000 HD
ENDROOT
BRANCH   1  15
ATOM     15  C   UNL     1       3.942  -2.806  -0.492  0.00  0.00    +0.000 C 
ATOM     16  C   UNL     1       2.777  -2.436  -1.043  0.00  0.00    +0.000 C 
ATOM     17  H   UNL     1       1.831  -2.741  -0.607  0.00  0.00    +0.000 HD
ATOM     18  H   UNL     1       2.724  -1.827  -1.939  0.00  0.00    +0.000 HD
BRANCH  15  19
ATOM     19  C   UNL     1       4.000  -3.652   0.746  0.00  0.00    +0.000 C 
ATOM     20  H   UNL     1       3.373  -3.219   1.533  0.00  0.00    +0.000 HD
ATOM     21  H   UNL     1       3.642  -4.664   0.531  0.00  0.00    +0.000 HD
ATOM     22  H   UNL     1       5.018  -3.736   1.141  0.00  0.00    +0.000 HD
ENDBRANCH  15  19
ENDBRANCH   1  15
BRANCH   5  23
ATOM     23  C   UNL     1       9.322  -2.595  -2.666  0.00  0.00    +0.000 C 
ATOM     24  H   UNL     1       9.969  -3.306  -2.141  0.00  0.00    +0.000 HD
ATOM     25  H   UNL     1       9.753  -1.596  -2.541  0.00  0.00    +0.000 HD
ATOM     26  H   UNL     1       9.338  -2.833  -3.735  0.00  0.00    +0.000 HD
ENDBRANCH   5  23
TORSDOF 3
ENDMDL
MODEL 2
REMARK VINA RESULT:    -5.273      0.810      4.528
REMARK INTER + INTRA:          -6.043
REMARK INTER:                  -5.892
REMARK INTRA:                  -0.151
REMARK UNBOUND:                -0.154
REMARK  Name = 22311
REMARK  3 active torsions:
REMARK  status: ('A' for Active; 'I' for Inactive)
REMARK    1  A    between atoms: C_1  and  C_7
REMARK    2  A    between atoms: C_5  and  C_8
REMARK    3  A    between atoms: C_7  and  C_9
REMARK                            x       y       z     vdW  Elec       q    Type
REMARK                         _______ _______ _______ _____ _____    ______ ____
ROOT
ATOM      1  C   UNL     1       8.173  -2.855  -1.890  0.00  0.00    +0.000 C 
ATOM      2  C   UNL     1       7.705  -1.947  -0.754  0.00  0.00    +0.000 C 
ATOM      3  C   UNL     1       7.190  -2.812  -3.064  0.00  0.00    +0.000 C 
ATOM      4  C   UNL     1       6.316  -2.357  -0.255  0.00  0.00    +0.000 C 
ATOM      5  C   UNL     1       5.347  -2.678  -1.366  0.00  0.00    +0.000 C 
ATOM      6  C   UNL     1       5.754  -2.866  -2.633  0.00  0.00    +0.000 C 
ATOM      7  H   UNL     1       8.213  -3.885  -1.509  0.00  0.00    +0.000 HD
ATOM      8  H   UNL     1       7.652  -0.899  -1.080  0.00  0.00    +0.000 HD
ATOM      9  H   UNL     1       8.410  -1.976   0.086  0.00  0.00    +0.000 HD
ATOM     10  H   UNL     1       7.390  -3.666  -3.724  0.00  0.00    +0.000 HD
ATOM     11  H   UNL     1       7.306  -1.912  -3.679  0.00  0.00    +0.000 HD
ATOM     12  H   UNL     1       5.917  -1.546   0.365  0.00  0.00    +0.000 HD
ATOM     13  H   UNL     1       6.409  -3.240   0.389  0.00  0.00    +0.000 HD
ATOM     14  H   UNL     1       5.023  -3.077  -3.410  0.00  0.00    +0.000 HD
ENDROOT
BRANCH   1  15
ATOM     15  C   UNL     1       9.535  -2.429  -2.342  0.00  0.00    +0.000 C 
ATOM     16  C   UNL     1      10.337  -3.244  -3.044  0.00  0.00    +0.000 C 
ATOM     17  H   UNL     1      11.322  -2.918  -3.363  0.00  0.00    +0.000 HD
ATOM     18  H   UNL     1      10.044  -4.250  -3.324  0.00  0.00    +0.000 HD
BRANCH  15  19
ATOM     19  C   UNL     1       9.953  -1.038  -1.964  0.00  0.00    +0.000 C 
ATOM     20  H   UNL     1      10.967  -1.044  -1.551  0.00  0.00    +0.000 HD
ATOM     21  H   UNL     1       9.936  -0.385  -2.843  0.00  0.00    +0.000 HD
ATOM     22  H   UNL     1       9.290  -0.599  -1.211  0.00  0.00    +0.000 HD
ENDBRANCH  15  19
ENDBRANCH   1  15
BRANCH   5  23
ATOM     23  C   UNL     1       3.903  -2.778  -0.973  0.00  0.00    +0.000 C 
ATOM     24  H   UNL     1       3.289  -3.023  -1.846  0.00  0.00    +0.000 HD
ATOM     25  H   UNL     1       3.524  -1.842  -0.551  0.00  0.00    +0.000 HD
ATOM     26  H   UNL     1       3.767  -3.563  -0.221  0.00  0.00    +0.000 HD
ENDBRANCH   5  23
TORSDOF 3
ENDMDL
MODEL 3
REMARK VINA RESULT:    -4.983     15.512     16.275
REMARK INTER + INTRA:          -5.720
REMARK INTER:                  -5.566
REMARK INTRA:                  -0.154
REMARK UNBOUND:                -0.154
REMARK  Name = 22311
REMARK  3 active torsions:
REMARK  status: ('A' for Active; 'I' for Inactive)
REMARK    1  A    between atoms: C_1  and  C_7
REMARK    2  A    between atoms: C_5  and  C_8
REMARK    3  A    between atoms: C_7  and  C_9
REMARK                            x       y       z     vdW  Elec       q    Type
REMARK                         _______ _______ _______ _____ _____    ______ ____
ROOT
ATOM      1  C   UNL     1       6.350  13.166  -0.133  0.00  0.00    +0.000 C 
ATOM      2  C   UNL     1       6.149  11.731   0.351  0.00  0.00    +0.000 C 
ATOM      3  C   UNL     1       7.232  13.953   0.842  0.00  0.00    +0.000 C 
ATOM      4  C   UNL     1       5.504  11.702   1.739  0.00  0.00    +0.000 C 
ATOM      5  C   UNL     1       6.089  12.710   2.698  0.00  0.00    +0.000 C 
ATOM      6  C   UNL     1       6.881  13.712   2.281  0.00  0.00    +0.000 C 
ATOM      7  H   UNL     1       5.366  13.651  -0.180  0.00  0.00    +0.000 HD
ATOM      8  H   UNL     1       7.107  11.195   0.411  0.00  0.00    +0.000 HD
ATOM      9  H   UNL     1       5.520  11.167  -0.349  0.00  0.00    +0.000 HD
ATOM     10  H   UNL     1       7.125  15.025   0.629  0.00  0.00    +0.000 HD
ATOM     11  H   UNL     1       8.297  13.721   0.730  0.00  0.00    +0.000 HD
ATOM     12  H   UNL     1       5.610  10.691   2.150  0.00  0.00    +0.000 HD
ATOM     13  H   UNL     1       4.429  11.899   1.644  0.00  0.00    +0.000 HD
ATOM     14  H   UNL     1       7.298  14.407   3.004  0.00  0.00    +0.000 HD
ENDROOT
BRANCH   1  15
ATOM     15  C   UNL     1       6.973  13.152  -1.495  0.00  0.00    +0.000 C 
ATOM     16  C   UNL     1       6.505  13.911  -2.497  0.00  0.00    +0.000 C 
ATOM     17  H   UNL     1       6.969  13.888  -3.477  0.00  0.00    +0.000 HD
ATOM     18  H   UNL     1       5.657  14.576  -2.377  0.00  0.00    +0.000 HD
BRANCH  15  19
ATOM     19  C   UNL     1       8.150  12.239  -1.674  0.00  0.00    +0.000 C 
ATOM     20  H   UNL     1       8.519  11.898  -0.702  0.00  0.00    +0.000 HD
ATOM     21  H   UNL     1       7.865  11.364  -2.268  0.00  0.00    +0.000 HD
ATOM     22  H   UNL     1       8.981  12.734  -2.190  0.00  0.00    +0.000 HD
ENDBRANCH  15  19
ENDBRANCH   1  15
BRANCH   5  23
ATOM     23  C   UNL     1       5.733  12.529   4.144  0.00  0.00    +0.000 C 
ATOM     24  H   UNL     1       6.293  11.690   4.570  0.00  0.00    +0.000 HD
ATOM     25  H   UNL     1       4.666  12.323   4.284  0.00  0.00    +0.000 HD
ATOM     26  H   UNL     1       5.975  13.434   4.711  0.00  0.00    +0.000 HD
ENDBRANCH   5  23
TORSDOF 3
ENDMDL
MODEL 4
REMARK VINA RESULT:    -4.977     16.003     17.156
REMARK INTER + INTRA:          -5.712
REMARK INTER:                  -5.557
REMARK INTRA:                  -0.155
REMARK UNBOUND:                -0.154
REMARK  Name = 22311
REMARK  3 active torsions:
REMARK  status: ('A' for Active; 'I' for Inactive)
REMARK    1  A    between atoms: C_1  and  C_7
REMARK    2  A    between atoms: C_5  and  C_8
REMARK    3  A    between atoms: C_7  and  C_9
REMARK                            x       y       z     vdW  Elec       q    Type
REMARK                         _______ _______ _______ _____ _____    ______ ____
ROOT
ATOM      1  C   UNL     1      15.984  10.168   2.753  0.00  0.00    +0.000 C 
ATOM      2  C   UNL     1      14.664  10.577   2.104  0.00  0.00    +0.000 C 
ATOM      3  C   UNL     1      15.765   9.720   4.201  0.00  0.00    +0.000 C 
ATOM      4  C   UNL     1      13.996  11.715   2.880  0.00  0.00    +0.000 C 
ATOM      5  C   UNL     1      14.034  11.528   4.377  0.00  0.00    +0.000 C 
ATOM      6  C   UNL     1      14.826  10.612   4.959  0.00  0.00    +0.000 C 
ATOM      7  H   UNL     1      16.648  11.043   2.757  0.00  0.00    +0.000 HD
ATOM      8  H   UNL     1      13.961   9.733   2.068  0.00  0.00    +0.000 HD
ATOM      9  H   UNL     1      14.821  10.896   1.065  0.00  0.00    +0.000 HD
ATOM     10  H   UNL     1      16.733   9.709   4.719  0.00  0.00    +0.000 HD
ATOM     11  H   UNL     1      15.365   8.701   4.272  0.00  0.00    +0.000 HD
ATOM     12  H   UNL     1      12.956  11.803   2.541  0.00  0.00    +0.000 HD
ATOM     13  H   UNL     1      14.494  12.662   2.637  0.00  0.00    +0.000 HD
ATOM     14  H   UNL     1      14.812  10.494   6.039  0.00  0.00    +0.000 HD
ENDROOT
BRANCH   1  15
ATOM     15  C   UNL     1      16.610   9.062   1.960  0.00  0.00    +0.000 C 
ATOM     16  C   UNL     1      16.793   9.154   0.635  0.00  0.00    +0.000 C 
ATOM     17  H   UNL     1      17.248   8.343   0.077  0.00  0.00    +0.000 HD
ATOM     18  H   UNL     1      16.502  10.031   0.066  0.00  0.00    +0.000 HD
BRANCH  15  19
ATOM     19  C   UNL     1      17.020   7.844   2.735  0.00  0.00    +0.000 C 
ATOM     20  H   UNL     1      16.621   6.940   2.262  0.00  0.00    +0.000 HD
ATOM     21  H   UNL     1      18.112   7.767   2.771  0.00  0.00    +0.000 HD
ATOM     22  H   UNL     1      16.654   7.869   3.767  0.00  0.00    +0.000 HD
ENDBRANCH  15  19
ENDBRANCH   1  15
BRANCH   5  23
ATOM     23  C   UNL     1      13.138  12.426   5.177  0.00  0.00    +0.000 C 
ATOM     24  H   UNL     1      12.411  12.917   4.522  0.00  0.00    +0.000 HD
ATOM     25  H   UNL     1      13.698  13.208   5.701  0.00  0.00    +0.000 HD
ATOM     26  H   UNL     1      12.593  11.846   5.930  0.00  0.00    +0.000 HD
ENDBRANCH   5  23
TORSDOF 3
ENDMDL
MODEL 5
REMARK VINA RESULT:    -4.927      8.891      9.269
REMARK INTER + INTRA:          -5.657
REMARK INTER:                  -5.503
REMARK INTRA:                  -0.154
REMARK UNBOUND:                -0.154
REMARK  Name = 22311
REMARK  3 active torsions:
REMARK  status: ('A' for Active; 'I' for Inactive)
REMARK    1  A    between atoms: C_1  and  C_7
REMARK    2  A    between atoms: C_5  and  C_8
REMARK    3  A    between atoms: C_7  and  C_9
REMARK                            x       y       z     vdW  Elec       q    Type
REMARK                         _______ _______ _______ _____ _____    ______ ____
ROOT
ATOM      1  C   UNL     1       7.626 -11.903  -0.945  0.00  0.00    +0.000 C 
ATOM      2  C   UNL     1       7.775 -10.985   0.266  0.00  0.00    +0.000 C 
ATOM      3  C   UNL     1       8.992 -12.227  -1.557  0.00  0.00    +0.000 C 
ATOM      4  C   UNL     1       8.472  -9.676  -0.114  0.00  0.00    +0.000 C 
ATOM      5  C   UNL     1       9.661  -9.869  -1.023  0.00  0.00    +0.000 C 
ATOM      6  C   UNL     1       9.893 -11.031  -1.655  0.00  0.00    +0.000 C 
ATOM      7  H   UNL     1       7.024 -11.377  -1.699  0.00  0.00    +0.000 HD
ATOM      8  H   UNL     1       8.367 -11.467   1.058  0.00  0.00    +0.000 HD
ATOM      9  H   UNL     1       6.796 -10.755   0.706  0.00  0.00    +0.000 HD
ATOM     10  H   UNL     1       8.841 -12.636  -2.564  0.00  0.00    +0.000 HD
ATOM     11  H   UNL     1       9.537 -12.992  -0.992  0.00  0.00    +0.000 HD
ATOM     12  H   UNL     1       8.784  -9.169   0.806  0.00  0.00    +0.000 HD
ATOM     13  H   UNL     1       7.755  -9.017  -0.618  0.00  0.00    +0.000 HD
ATOM     14  H   UNL     1      10.771 -11.137  -2.287  0.00  0.00    +0.000 HD
ENDROOT
BRANCH   1  15
ATOM     15  C   UNL     1       6.932 -13.165  -0.535  0.00  0.00    +0.000 C 
ATOM     16  C   UNL     1       5.602 -13.306  -0.628  0.00  0.00    +0.000 C 
ATOM     17  H   UNL     1       5.116 -14.228  -0.326  0.00  0.00    +0.000 HD
ATOM     18  H   UNL     1       4.957 -12.520  -1.006  0.00  0.00    +0.000 HD
BRANCH  15  19
ATOM     19  C   UNL     1       7.811 -14.263  -0.013  0.00  0.00    +0.000 C 
ATOM     20  H   UNL     1       7.851 -15.092  -0.727  0.00  0.00    +0.000 HD
ATOM     21  H   UNL     1       8.828 -13.890   0.149  0.00  0.00    +0.000 HD
ATOM     22  H   UNL     1       7.449 -14.663   0.941  0.00  0.00    +0.000 HD
ENDBRANCH  15  19
ENDBRANCH   1  15
BRANCH   5  23
ATOM     23  C   UNL     1      10.570  -8.685  -1.180  0.00  0.00    +0.000 C 
ATOM     24  H   UNL     1      10.824  -8.270  -0.199  0.00  0.00    +0.000 HD
ATOM     25  H   UNL     1      10.109  -7.887  -1.771  0.00  0.00    +0.000 HD
ATOM     26  H   UNL     1      11.496  -8.981  -1.684  0.00  0.00    +0.000 HD
ENDBRANCH   5  23
TORSDOF 3
ENDMDL
MODEL 6
REMARK VINA RESULT:    -4.894     15.622     16.087
REMARK INTER + INTRA:          -5.619
REMARK INTER:                  -5.475
REMARK INTRA:                  -0.145
REMARK UNBOUND:                -0.154
REMARK  Name = 22311
REMARK  3 active torsions:
REMARK  status: ('A' for Active; 'I' for Inactive)
REMARK    1  A    between atoms: C_1  and  C_7
REMARK    2  A    between atoms: C_5  and  C_8
REMARK    3  A    between atoms: C_7  and  C_9
REMARK                            x       y       z     vdW  Elec       q    Type
REMARK                         _______ _______ _______ _____ _____    ______ ____
ROOT
ATOM      1  C   UNL     1       6.041  12.446   3.240  0.00  0.00    +0.000 C 
ATOM      2  C   UNL     1       5.086  11.849   2.208  0.00  0.00    +0.000 C 
ATOM      3  C   UNL     1       6.625  13.771   2.742  0.00  0.00    +0.000 C 
ATOM      4  C   UNL     1       5.795  11.608   0.873  0.00  0.00    +0.000 C 
ATOM      5  C   UNL     1       6.689  12.748   0.451  0.00  0.00    +0.000 C 
ATOM      6  C   UNL     1       7.043  13.727   1.301  0.00  0.00    +0.000 C 
ATOM      7  H   UNL     1       6.867  11.738   3.390  0.00  0.00    +0.000 HD
ATOM      8  H   UNL     1       4.233  12.517   2.024  0.00  0.00    +0.000 HD
ATOM      9  H   UNL     1       4.666  10.901   2.567  0.00  0.00    +0.000 HD
ATOM     10  H   UNL     1       7.500  14.025   3.353  0.00  0.00    +0.000 HD
ATOM     11  H   UNL     1       5.923  14.608   2.845  0.00  0.00    +0.000 HD
ATOM     12  H   UNL     1       5.035  11.427   0.104  0.00  0.00    +0.000 HD
ATOM     13  H   UNL     1       6.404  10.699   0.944  0.00  0.00    +0.000 HD
ATOM     14  H   UNL     1       7.674  14.542   0.955  0.00  0.00    +0.000 HD
ENDROOT
BRANCH   1  15
ATOM     15  C   UNL     1       5.314  12.656   4.532  0.00  0.00    +0.000 C 
ATOM     16  C   UNL     1       3.990  12.865   4.576  0.00  0.00    +0.000 C 
ATOM     17  H   UNL     1       3.481  13.016   5.522  0.00  0.00    +0.000 HD
ATOM     18  H   UNL     1       3.375  12.890   3.684  0.00  0.00    +0.000 HD
BRANCH  15  19
ATOM     19  C   UNL     1       6.153  12.621   5.776  0.00  0.00    +0.000 C 
ATOM     20  H   UNL     1       6.439  11.591   6.013  0.00  0.00    +0.000 HD
ATOM     21  H   UNL     1       7.064  13.214   5.637  0.00  0.00    +0.000 HD
ATOM     22  H   UNL     1       5.622  13.027   6.644  0.00  0.00    +0.000 HD
ENDBRANCH  15  19
ENDBRANCH   1  15
BRANCH   5  23
ATOM     23  C   UNL     1       7.162  12.724  -0.972  0.00  0.00    +0.000 C 
ATOM     24  H   UNL     1       8.007  12.035  -1.079  0.00  0.00    +0.000 HD
ATOM     25  H   UNL     1       7.491  13.711  -1.315  0.00  0.00    +0.000 HD
ATOM     26  H   UNL     1       6.356  12.393  -1.635  0.00  0.00    +0.000 HD
ENDBRANCH   5  23
TORSDOF 3
ENDMDL
MODEL 7
REMARK VINA RESULT:    -4.774      8.737     10.459
REMARK INTER + INTRA:          -5.486
REMARK INTER:                  -5.340
REMARK INTRA:                  -0.146
REMARK UNBOUND:                -0.154
REMARK  Name = 22311
REMARK  3 active torsions:
REMARK  status: ('A' for Active; 'I' for Inactive)
REMARK    1  A    between atoms: C_1  and  C_7
REMARK    2  A    between atoms: C_5  and  C_8
REMARK    3  A    between atoms: C_7  and  C_9
REMARK                            x       y       z     vdW  Elec       q    Type
REMARK                         _______ _______ _______ _____ _____    ______ ____
ROOT
ATOM      1  C   UNL     1      11.488 -10.033  -3.530  0.00  0.00    +0.000 C 
ATOM      2  C   UNL     1      11.351 -11.554  -3.510  0.00  0.00    +0.000 C 
ATOM      3  C   UNL     1      11.412  -9.459  -2.113  0.00  0.00    +0.000 C 
ATOM      4  C   UNL     1      10.026 -11.981  -2.872  0.00  0.00    +0.000 C 
ATOM      5  C   UNL     1       9.683 -11.210  -1.621  0.00  0.00    +0.000 C 
ATOM      6  C   UNL     1      10.328 -10.081  -1.282  0.00  0.00    +0.000 C 
ATOM      7  H   UNL     1      10.655  -9.623  -4.116  0.00  0.00    +0.000 HD
ATOM      8  H   UNL     1      12.167 -12.019  -2.939  0.00  0.00    +0.000 HD
ATOM      9  H   UNL     1      11.408 -11.965  -4.526  0.00  0.00    +0.000 HD
ATOM     10  H   UNL     1      11.227  -8.379  -2.178  0.00  0.00    +0.000 HD
ATOM     11  H   UNL     1      12.349  -9.579  -1.557  0.00  0.00    +0.000 HD
ATOM     12  H   UNL     1      10.078 -13.053  -2.648  0.00  0.00    +0.000 HD
ATOM     13  H   UNL     1       9.213 -11.843  -3.597  0.00  0.00    +0.000 HD
ATOM     14  H   UNL     1      10.066  -9.564  -0.363  0.00  0.00    +0.000 HD
ENDROOT
BRANCH   1  15
ATOM     15  C   UNL     1      12.789  -9.657  -4.169  0.00  0.00    +0.000 C 
ATOM     16  C   UNL     1      13.969  -9.951  -3.604  0.00  0.00    +0.000 C 
ATOM     17  H   UNL     1      14.902  -9.670  -4.081  0.00  0.00    +0.000 HD
ATOM     18  H   UNL     1      14.047 -10.478  -2.659  0.00  0.00    +0.000 HD
BRANCH  15  19
ATOM     19  C   UNL     1      12.697  -8.930  -5.479  0.00  0.00    +0.000 C 
ATOM     20  H   UNL     1      13.398  -8.090  -5.498  0.00  0.00    +0.000 HD
ATOM     21  H   UNL     1      12.938  -9.607  -6.306  0.00  0.00    +0.000 HD
ATOM     22  H   UNL     1      11.693  -8.530  -5.659  0.00  0.00    +0.000 HD
ENDBRANCH  15  19
ENDBRANCH   1  15
BRANCH   5  23
ATOM     23  C   UNL     1       8.579 -11.777  -0.779  0.00  0.00    +0.000 C 
ATOM     24  H   UNL     1       8.077 -10.977  -0.224  0.00  0.00    +0.000 HD
ATOM     25  H   UNL     1       8.948 -12.507  -0.051  0.00  0.00    +0.000 HD
ATOM     26  H   UNL     1       7.839 -12.280  -1.410  0.00  0.00    +0.000 HD
ENDBRANCH   5  23
TORSDOF 3
ENDMDL
MODEL 8
REMARK VINA RESULT:    -4.745     16.139     16.983
REMARK INTER + INTRA:          -5.453
REMARK INTER:                  -5.299
REMARK INTRA:                  -0.154
REMARK UNBOUND:                -0.154
REMARK  Name = 22311
REMARK  3 active torsions:
REMARK  status: ('A' for Active; 'I' for Inactive)
REMARK    1  A    between atoms: C_1  and  C_7
REMARK    2  A    between atoms: C_5  and  C_8
REMARK    3  A    between atoms: C_7  and  C_9
REMARK                            x       y       z     vdW  Elec       q    Type
REMARK                         _______ _______ _______ _____ _____    ______ ____
ROOT
ATOM      1  C   UNL     1      14.417  10.880   3.163  0.00  0.00    +0.000 C 
ATOM      2  C   UNL     1      15.326  10.914   1.936  0.00  0.00    +0.000 C 
ATOM      3  C   UNL     1      15.199  10.455   4.410  0.00  0.00    +0.000 C 
ATOM      4  C   UNL     1      15.961   9.545   1.680  0.00  0.00    +0.000 C 
ATOM      5  C   UNL     1      16.468   8.872   2.932  0.00  0.00    +0.000 C 
ATOM      6  C   UNL     1      16.129   9.304   4.159  0.00  0.00    +0.000 C 
ATOM      7  H   UNL     1      13.626  10.140   2.981  0.00  0.00    +0.000 HD
ATOM      8  H   UNL     1      16.136  11.646   2.062  0.00  0.00    +0.000 HD
ATOM      9  H   UNL     1      14.765  11.221   1.043  0.00  0.00    +0.000 HD
ATOM     10  H   UNL     1      14.487  10.166   5.193  0.00  0.00    +0.000 HD
ATOM     11  H   UNL     1      15.804  11.268   4.827  0.00  0.00    +0.000 HD
ATOM     12  H   UNL     1      16.783   9.672   0.965  0.00  0.00    +0.000 HD
ATOM     13  H   UNL     1      15.223   8.885   1.207  0.00  0.00    +0.000 HD
ATOM     14  H   UNL     1      16.529   8.804   5.037  0.00  0.00    +0.000 HD
ENDROOT
BRANCH   1  15
ATOM     15  C   UNL     1      13.808  12.232   3.373  0.00  0.00    +0.000 C 
ATOM     16  C   UNL     1      13.704  13.126   2.379  0.00  0.00    +0.000 C 
ATOM     17  H   UNL     1      13.260  14.101   2.550  0.00  0.00    +0.000 HD
ATOM     18  H   UNL     1      14.051  12.920   1.372  0.00  0.00    +0.000 HD
BRANCH  15  19
ATOM     19  C   UNL     1      13.321  12.529   4.761  0.00  0.00    +0.000 C 
ATOM     20  H   UNL     1      14.104  12.311   5.494  0.00  0.00    +0.000 HD
ATOM     21  H   UNL     1      13.044  13.585   4.848  0.00  0.00    +0.000 HD
ATOM     22  H   UNL     1      12.442  11.932   5.026  0.00  0.00    +0.000 HD
ENDBRANCH  15  19
ENDBRANCH   1  15
BRANCH   5  23
ATOM     23  C   UNL     1      17.372   7.693   2.728  0.00  0.00    +0.000 C 
ATOM     24  H   UNL     1      17.199   6.943   3.507  0.00  0.00    +0.000 HD
ATOM     25  H   UNL     1      18.430   7.972   2.762  0.00  0.00    +0.000 HD
ATOM     26  H   UNL     1      17.180   7.231   1.753  0.00  0.00    +0.000 HD
ENDBRANCH   5  23
TORSDOF 3
ENDMDL
MODEL 9
REMARK VINA RESULT:    -4.676     16.332     17.069
REMARK INTER + INTRA:          -5.376
REMARK INTER:                  -5.222
REMARK INTRA:                  -0.154
REMARK UNBOUND:                -0.154
REMARK  Name = 22311
REMARK  3 active torsions:
REMARK  status: ('A' for Active; 'I' for Inactive)
REMARK    1  A    between atoms: C_1  and  C_7
REMARK    2  A    between atoms: C_5  and  C_8
REMARK    3  A    between atoms: C_7  and  C_9
REMARK                            x       y       z     vdW  Elec       q    Type
REMARK                         _______ _______ _______ _____ _____    ______ ____
ROOT
ATOM      1  C   UNL     1      17.422   8.302   2.146  0.00  0.00    +0.000 C 
ATOM      2  C   UNL     1      17.320   9.184   3.389  0.00  0.00    +0.000 C 
ATOM      3  C   UNL     1      17.040   9.087   0.887  0.00  0.00    +0.000 C 
ATOM      4  C   UNL     1      15.903   9.737   3.559  0.00  0.00    +0.000 C 
ATOM      5  C   UNL     1      15.290  10.233   2.273  0.00  0.00    +0.000 C 
ATOM      6  C   UNL     1      15.824   9.945   1.073  0.00  0.00    +0.000 C 
ATOM      7  H   UNL     1      16.718   7.467   2.261  0.00  0.00    +0.000 HD
ATOM      8  H   UNL     1      18.012  10.036   3.329  0.00  0.00    +0.000 HD
ATOM      9  H   UNL     1      17.597   8.622   4.290  0.00  0.00    +0.000 HD
ATOM     10  H   UNL     1      16.847   8.377   0.072  0.00  0.00    +0.000 HD
ATOM     11  H   UNL     1      17.845   9.745   0.538  0.00  0.00    +0.000 HD
ATOM     12  H   UNL     1      15.933  10.548   4.296  0.00  0.00    +0.000 HD
ATOM     13  H   UNL     1      15.255   8.953   3.971  0.00  0.00    +0.000 HD
ATOM     14  H   UNL     1      15.364  10.337   0.170  0.00  0.00    +0.000 HD
ENDROOT
BRANCH   1  15
ATOM     15  C   UNL     1      18.818   7.774   2.020  0.00  0.00    +0.000 C 
ATOM     16  C   UNL     1      19.225   6.681   2.681  0.00  0.00    +0.000 C 
ATOM     17  H   UNL     1      20.241   6.312   2.578  0.00  0.00    +0.000 HD
ATOM     18  H   UNL     1      18.570   6.120   3.339  0.00  0.00    +0.000 HD
BRANCH  15  19
ATOM     19  C   UNL     1      19.735   8.538   1.111  0.00  0.00    +0.000 C 
ATOM     20  H   UNL     1      19.262   9.472   0.791  0.00  0.00    +0.000 HD
ATOM     21  H   UNL     1      20.670   8.779   1.629  0.00  0.00    +0.000 HD
ATOM     22  H   UNL     1      19.992   7.970   0.210  0.00  0.00    +0.000 HD
ENDBRANCH  15  19
ENDBRANCH   1  15
BRANCH   5  23
ATOM     23  C   UNL     1      14.050  11.065   2.410  0.00  0.00    +0.000 C 
ATOM     24  H   UNL     1      14.269  11.982   2.967  0.00  0.00    +0.000 HD
ATOM     25  H   UNL     1      13.253  10.533   2.942  0.00  0.00    +0.000 HD
ATOM     26  H   UNL     1      13.665  11.340   1.423  0.00  0.00    +0.000 HD
ENDBRANCH   5  23
TORSDOF 3
ENDMDL
MODEL 10
REMARK VINA RESULT:    -4.664     16.292     17.160
REMARK INTER + INTRA:          -5.362
REMARK INTER:                  -5.207
REMARK INTRA:                  -0.155
REMARK UNBOUND:                -0.154
REMARK  Name = 22311
REMARK  3 active torsions:
REMARK  status: ('A' for Active; 'I' for Inactive)
REMARK    1  A    between atoms: C_1  and  C_7
REMARK    2  A    between atoms: C_5  and  C_8
REMARK    3  A    between atoms: C_7  and  C_9
REMARK                            x       y       z     vdW  Elec       q    Type
REMARK                         _______ _______ _______ _____ _____    ______ ____
ROOT
ATOM      1  C   UNL     1      15.787   9.380   2.801  0.00  0.00    +0.000 C 
ATOM      2  C   UNL     1      16.275   9.917   4.144  0.00  0.00    +0.000 C 
ATOM      3  C   UNL     1      15.127  10.489   1.976  0.00  0.00    +0.000 C 
ATOM      4  C   UNL     1      15.120  10.516   4.952  0.00  0.00    +0.000 C 
ATOM      5  C   UNL     1      14.190  11.373   4.129  0.00  0.00    +0.000 C 
ATOM      6  C   UNL     1      14.214  11.363   2.786  0.00  0.00    +0.000 C 
ATOM      7  H   UNL     1      15.037   8.601   2.996  0.00  0.00    +0.000 HD
ATOM      8  H   UNL     1      17.034  10.700   4.007  0.00  0.00    +0.000 HD
ATOM      9  H   UNL     1      16.750   9.122   4.734  0.00  0.00    +0.000 HD
ATOM     10  H   UNL     1      14.545  10.030   1.166  0.00  0.00    +0.000 HD
ATOM     11  H   UNL     1      15.857  11.150   1.495  0.00  0.00    +0.000 HD
ATOM     12  H   UNL     1      15.542  11.106   5.775  0.00  0.00    +0.000 HD
ATOM     13  H   UNL     1      14.535   9.706   5.405  0.00  0.00    +0.000 HD
ATOM     14  H   UNL     1      13.541  12.009   2.228  0.00  0.00    +0.000 HD
ENDROOT
BRANCH   1  15
ATOM     15  C   UNL     1      16.940   8.794   2.046  0.00  0.00    +0.000 C 
ATOM     16  C   UNL     1      17.792   7.928   2.613  0.00  0.00    +0.000 C 
ATOM     17  H   UNL     1      18.623   7.514   2.051  0.00  0.00    +0.000 HD
ATOM     18  H   UNL     1      17.693   7.602   3.643  0.00  0.00    +0.000 HD
BRANCH  15  19
ATOM     19  C   UNL     1      17.089   9.234   0.619  0.00  0.00    +0.000 C 
ATOM     20  H   UNL     1      16.123   9.193   0.106  0.00  0.00    +0.000 HD
ATOM     21  H   UNL     1      17.466  10.262   0.576  0.00  0.00    +0.000 HD
ATOM     22  H   UNL     1      17.789   8.600   0.063  0.00  0.00    +0.000 HD
ENDBRANCH  15  19
ENDBRANCH   1  15
BRANCH   5  23
ATOM     23  C   UNL     1      13.234  12.236   4.899  0.00  0.00    +0.000 C 
ATOM     24  H   UNL     1      12.224  12.144   4.486  0.00  0.00    +0.000 HD
ATOM     25  H   UNL     1      13.514  13.294   4.865  0.00  0.00    +0.000 HD
ATOM     26  H   UNL     1      13.209  11.932   5.951  0.00  0.00    +0.000 HD
ENDBRANCH   5  23
TORSDOF 3
ENDMDL
