MODEL 1
REMARK VINA RESULT:    -5.254      0.000      0.000
REMARK INTER + INTRA:          -6.368
REMARK INTER:                  -6.170
REMARK INTRA:                  -0.199
REMARK UNBOUND:                -0.192
REMARK  Name = 16666
REMARK  5 active torsions:
REMARK  status: ('A' for Active; 'I' for Inactive)
REMARK    1  A    between atoms: O_1  and  C_3
REMARK    2  A    between atoms: C_2  and  C_8
REMARK    3  A    between atoms: C_5  and  C_9
REMARK    4  A    between atoms: C_8  and  C_10
REMARK    5  A    between atoms: C_8  and  C_11
REMARK                            x       y       z     vdW  Elec       q    Type
REMARK                         _______ _______ _______ _____ _____    ______ ____
ROOT
ATOM      1  C   UNL     1       8.404 -10.974  -0.844  0.00  0.00    +0.000 C 
ATOM      2  C   UNL     1       9.297  -9.945  -0.131  0.00  0.00    +0.000 C 
ATOM      3  C   UNL     1       9.253 -11.964  -1.655  0.00  0.00    +0.000 C 
ATOM      4  C   UNL     1      11.079 -10.230  -1.915  0.00  0.00    +0.000 C 
ATOM      5  C   UNL     1      10.234  -9.236  -1.113  0.00  0.00    +0.000 C 
ATOM      6  C   UNL     1      10.183 -11.248  -2.632  0.00  0.00    +0.000 C 
ATOM      7  H   UNL     1       7.745 -10.431  -1.537  0.00  0.00    +0.000 HD
ATOM      8  H   UNL     1       9.921 -10.404   0.639  0.00  0.00    +0.000 HD
ATOM      9  H   UNL     1       8.622 -12.642  -2.239  0.00  0.00    +0.000 HD
ATOM     10  H   UNL     1       9.883 -12.582  -1.009  0.00  0.00    +0.000 HD
ATOM     11  H   UNL     1      11.732 -10.773  -1.218  0.00  0.00    +0.000 HD
ATOM     12  H   UNL     1      10.882  -8.545  -0.559  0.00  0.00    +0.000 HD
ATOM     13  H   UNL     1       9.646  -8.605  -1.792  0.00  0.00    +0.000 HD
ATOM     14  H   UNL     1      10.801 -11.989  -3.151  0.00  0.00    +0.000 HD
ATOM     15  H   UNL     1       9.582 -10.743  -3.398  0.00  0.00    +0.000 HD
ENDROOT
BRANCH   4  16
ATOM     16  C   UNL     1      11.970  -9.497  -2.917  0.00  0.00    +0.000 C 
ATOM     17  H   UNL     1      12.999  -9.433  -2.547  0.00  0.00    +0.000 HD
ATOM     18  H   UNL     1      11.990 -10.025  -3.876  0.00  0.00    +0.000 HD
ATOM     19  H   UNL     1      11.611  -8.478  -3.098  0.00  0.00    +0.000 HD
ENDBRANCH   4  16
BRANCH   2  20
ATOM     20  O   UNL     1       8.476  -8.969   0.506  0.00  0.00    +0.000 OA
ATOM     21  H   UNL     1       7.693  -9.423   0.864  0.00  0.00    +0.000 HD
ENDBRANCH   2  20
BRANCH   1  22
ATOM     22  C   UNL     1       7.516 -11.726   0.150  0.00  0.00    +0.000 C 
ATOM     23  H   UNL     1       7.321 -11.083   1.018  0.00  0.00    +0.000 HD
BRANCH  22  24
ATOM     24  C   UNL     1       6.169 -12.060  -0.486  0.00  0.00    +0.000 C 
ATOM     25  H   UNL     1       6.231 -12.882  -1.205  0.00  0.00    +0.000 HD
ATOM     26  H   UNL     1       5.460 -12.374   0.289  0.00  0.00    +0.000 HD
ATOM     27  H   UNL     1       5.737 -11.188  -0.987  0.00  0.00    +0.000 HD
ENDBRANCH  22  24
BRANCH  22  28
ATOM     28  C   UNL     1       8.212 -12.994   0.635  0.00  0.00    +0.000 C 
ATOM     29  H   UNL     1       8.635 -13.599  -0.171  0.00  0.00    +0.000 HD
ATOM     30  H   UNL     1       7.473 -13.637   1.131  0.00  0.00    +0.000 HD
ATOM     31  H   UNL     1       8.986 -12.806   1.383  0.00  0.00    +0.000 HD
ENDBRANCH  22  28
ENDBRANCH   1  22
TORSDOF 5
ENDMDL
MODEL 2
REMARK VINA RESULT:    -5.167     18.641     19.444
REMARK INTER + INTRA:          -6.265
REMARK INTER:                  -6.082
REMARK INTRA:                  -0.183
REMARK UNBOUND:                -0.192
REMARK  Name = 16666
REMARK  5 active torsions:
REMARK  status: ('A' for Active; 'I' for Inactive)
REMARK    1  A    between atoms: O_1  and  C_3
REMARK    2  A    between atoms: C_2  and  C_8
REMARK    3  A    between atoms: C_5  and  C_9
REMARK    4  A    between atoms: C_8  and  C_10
REMARK    5  A    between atoms: C_8  and  C_11
REMARK                            x       y       z     vdW  Elec       q    Type
REMARK                         _______ _______ _______ _____ _____    ______ ____
ROOT
ATOM      1  C   UNL     1       1.340  -5.865  16.581  0.00  0.00    +0.000 C 
ATOM      2  C   UNL     1       2.740  -6.173  16.026  0.00  0.00    +0.000 C 
ATOM      3  C   UNL     1       0.609  -4.851  15.690  0.00  0.00    +0.000 C 
ATOM      4  C   UNL     1       2.821  -3.890  14.919  0.00  0.00    +0.000 C 
ATOM      5  C   UNL     1       3.555  -4.894  15.812  0.00  0.00    +0.000 C 
ATOM      6  C   UNL     1       1.429  -3.580  15.484  0.00  0.00    +0.000 C 
ATOM      7  H   UNL     1       1.460  -5.425  17.582  0.00  0.00    +0.000 HD
ATOM      8  H   UNL     1       2.697  -6.694  15.066  0.00  0.00    +0.000 HD
ATOM      9  H   UNL     1      -0.350  -4.557  16.128  0.00  0.00    +0.000 HD
ATOM     10  H   UNL     1       0.401  -5.261  14.697  0.00  0.00    +0.000 HD
ATOM     11  H   UNL     1       2.699  -4.336  13.923  0.00  0.00    +0.000 HD
ATOM     12  H   UNL     1       4.527  -5.155  15.375  0.00  0.00    +0.000 HD
ATOM     13  H   UNL     1       3.785  -4.439  16.785  0.00  0.00    +0.000 HD
ATOM     14  H   UNL     1       0.892  -2.908  14.804  0.00  0.00    +0.000 HD
ATOM     15  H   UNL     1       1.523  -3.052  16.442  0.00  0.00    +0.000 HD
ENDROOT
BRANCH   4  16
ATOM     16  C   UNL     1       3.638  -2.609  14.762  0.00  0.00    +0.000 C 
ATOM     17  H   UNL     1       4.702  -2.804  14.933  0.00  0.00    +0.000 HD
ATOM     18  H   UNL     1       3.529  -2.201  13.751  0.00  0.00    +0.000 HD
ATOM     19  H   UNL     1       3.316  -1.841  15.473  0.00  0.00    +0.000 HD
ENDBRANCH   4  16
BRANCH   2  20
ATOM     20  O   UNL     1       3.436  -7.015  16.941  0.00  0.00    +0.000 OA
ATOM     21  H   UNL     1       4.320  -7.193  16.573  0.00  0.00    +0.000 HD
ENDBRANCH   2  20
BRANCH   1  22
ATOM     22  C   UNL     1       0.506  -7.140  16.731  0.00  0.00    +0.000 C 
ATOM     23  H   UNL     1       1.094  -7.999  16.385  0.00  0.00    +0.000 HD
BRANCH  22  24
ATOM     24  C   UNL     1       0.159  -7.381  18.197  0.00  0.00    +0.000 C 
ATOM     25  H   UNL     1       0.989  -7.814  18.764  0.00  0.00    +0.000 HD
ATOM     26  H   UNL     1      -0.090  -6.429  18.682  0.00  0.00    +0.000 HD
ATOM     27  H   UNL     1      -0.713  -8.035  18.299  0.00  0.00    +0.000 HD
ENDBRANCH  22  24
BRANCH  22  28
ATOM     28  C   UNL     1      -0.761  -7.050  15.885  0.00  0.00    +0.000 C 
ATOM     29  H   UNL     1      -1.261  -8.011  15.739  0.00  0.00    +0.000 HD
ATOM     30  H   UNL     1      -0.491  -6.703  14.879  0.00  0.00    +0.000 HD
ATOM     31  H   UNL     1      -1.485  -6.324  16.261  0.00  0.00    +0.000 HD
ENDBRANCH  22  28
ENDBRANCH   1  22
TORSDOF 5
ENDMDL
MODEL 3
REMARK VINA RESULT:    -4.605     14.908     17.210
REMARK INTER + INTRA:          -5.605
REMARK INTER:                  -5.403
REMARK INTRA:                  -0.202
REMARK UNBOUND:                -0.192
REMARK  Name = 16666
REMARK  5 active torsions:
REMARK  status: ('A' for Active; 'I' for Inactive)
REMARK    1  A    between atoms: O_1  and  C_3
REMARK    2  A    between atoms: C_2  and  C_8
REMARK    3  A    between atoms: C_5  and  C_9
REMARK    4  A    between atoms: C_8  and  C_10
REMARK    5  A    between atoms: C_8  and  C_11
REMARK                            x       y       z     vdW  Elec       q    Type
REMARK                         _______ _______ _______ _____ _____    ______ ____
ROOT
ATOM      1  C   UNL     1      -6.328 -12.696   3.380  0.00  0.00    +0.000 C 
ATOM      2  C   UNL     1      -7.678 -12.325   4.015  0.00  0.00    +0.000 C 
ATOM      3  C   UNL     1      -5.871 -14.087   3.843  0.00  0.00    +0.000 C 
ATOM      4  C   UNL     1      -7.182 -13.833   5.994  0.00  0.00    +0.000 C 
ATOM      5  C   UNL     1      -7.635 -12.443   5.541  0.00  0.00    +0.000 C 
ATOM      6  C   UNL     1      -5.830 -14.194   5.366  0.00  0.00    +0.000 C 
ATOM      7  H   UNL     1      -5.583 -11.958   3.709  0.00  0.00    +0.000 HD
ATOM      8  H   UNL     1      -8.490 -12.967   3.663  0.00  0.00    +0.000 HD
ATOM      9  H   UNL     1      -4.869 -14.319   3.470  0.00  0.00    +0.000 HD
ATOM     10  H   UNL     1      -6.542 -14.874   3.486  0.00  0.00    +0.000 HD
ATOM     11  H   UNL     1      -7.927 -14.568   5.660  0.00  0.00    +0.000 HD
ATOM     12  H   UNL     1      -8.627 -12.213   5.950  0.00  0.00    +0.000 HD
ATOM     13  H   UNL     1      -6.965 -11.674   5.950  0.00  0.00    +0.000 HD
ATOM     14  H   UNL     1      -5.547 -15.214   5.649  0.00  0.00    +0.000 HD
ATOM     15  H   UNL     1      -5.048 -13.529   5.753  0.00  0.00    +0.000 HD
ENDROOT
BRANCH   4  16
ATOM     16  C   UNL     1      -7.104 -13.906   7.518  0.00  0.00    +0.000 C 
ATOM     17  H   UNL     1      -7.849 -14.606   7.912  0.00  0.00    +0.000 HD
ATOM     18  H   UNL     1      -6.116 -14.252   7.840  0.00  0.00    +0.000 HD
ATOM     19  H   UNL     1      -7.285 -12.927   7.974  0.00  0.00    +0.000 HD
ENDBRANCH   4  16
BRANCH   2  20
ATOM     20  O   UNL     1      -8.011 -10.983   3.667  0.00  0.00    +0.000 OA
ATOM     21  H   UNL     1      -8.818 -10.738   4.152  0.00  0.00    +0.000 HD
ENDBRANCH   2  20
BRANCH   1  22
ATOM     22  C   UNL     1      -6.396 -12.640   1.852  0.00  0.00    +0.000 C 
ATOM     23  H   UNL     1      -7.089 -11.845   1.550  0.00  0.00    +0.000 HD
BRANCH  22  24
ATOM     24  C   UNL     1      -5.026 -12.301   1.270  0.00  0.00    +0.000 C 
ATOM     25  H   UNL     1      -4.675 -13.045   0.548  0.00  0.00    +0.000 HD
ATOM     26  H   UNL     1      -5.076 -11.345   0.736  0.00  0.00    +0.000 HD
ATOM     27  H   UNL     1      -4.273 -12.196   2.058  0.00  0.00    +0.000 HD
ENDBRANCH  22  24
BRANCH  22  28
ATOM     28  C   UNL     1      -6.907 -13.965   1.292  0.00  0.00    +0.000 C 
ATOM     29  H   UNL     1      -6.878 -14.787   2.012  0.00  0.00    +0.000 HD
ATOM     30  H   UNL     1      -6.256 -14.274   0.464  0.00  0.00    +0.000 HD
ATOM     31  H   UNL     1      -7.911 -13.898   0.866  0.00  0.00    +0.000 HD
ENDBRANCH  22  28
ENDBRANCH   1  22
TORSDOF 5
ENDMDL
MODEL 4
REMARK VINA RESULT:    -4.597     22.737     24.289
REMARK INTER + INTRA:          -5.595
REMARK INTER:                  -5.383
REMARK INTRA:                  -0.212
REMARK UNBOUND:                -0.192
REMARK  Name = 16666
REMARK  5 active torsions:
REMARK  status: ('A' for Active; 'I' for Inactive)
REMARK    1  A    between atoms: O_1  and  C_3
REMARK    2  A    between atoms: C_2  and  C_8
REMARK    3  A    between atoms: C_5  and  C_9
REMARK    4  A    between atoms: C_8  and  C_10
REMARK    5  A    between atoms: C_8  and  C_11
REMARK                            x       y       z     vdW  Elec       q    Type
REMARK                         _______ _______ _______ _____ _____    ______ ____
ROOT
ATOM      1  C   UNL     1       8.598  12.532  -4.287  0.00  0.00    +0.000 C 
ATOM      2  C   UNL     1       7.738  13.473  -5.147  0.00  0.00    +0.000 C 
ATOM      3  C   UNL     1      10.090  12.842  -4.466  0.00  0.00    +0.000 C 
ATOM      4  C   UNL     1       9.654  13.755  -6.786  0.00  0.00    +0.000 C 
ATOM      5  C   UNL     1       8.165  13.441  -6.617  0.00  0.00    +0.000 C 
ATOM      6  C   UNL     1      10.507  12.806  -5.934  0.00  0.00    +0.000 C 
ATOM      7  H   UNL     1       8.413  11.501  -4.623  0.00  0.00    +0.000 HD
ATOM      8  H   UNL     1       7.803  14.511  -4.813  0.00  0.00    +0.000 HD
ATOM      9  H   UNL     1      10.712  12.118  -3.930  0.00  0.00    +0.000 HD
ATOM     10  H   UNL     1      10.347  13.835  -4.085  0.00  0.00    +0.000 HD
ATOM     11  H   UNL     1       9.834  14.783  -6.446  0.00  0.00    +0.000 HD
ATOM     12  H   UNL     1       7.558  14.157  -7.185  0.00  0.00    +0.000 HD
ATOM     13  H   UNL     1       7.934  12.457  -7.045  0.00  0.00    +0.000 HD
ATOM     14  H   UNL     1      11.565  13.080  -6.017  0.00  0.00    +0.000 HD
ATOM     15  H   UNL     1      10.415  11.780  -6.310  0.00  0.00    +0.000 HD
ENDROOT
BRANCH   4  16
ATOM     16  C   UNL     1      10.060  13.670  -8.257  0.00  0.00    +0.000 C 
ATOM     17  H   UNL     1       9.181  13.531  -8.895  0.00  0.00    +0.000 HD
ATOM     18  H   UNL     1      10.563  14.591  -8.573  0.00  0.00    +0.000 HD
ATOM     19  H   UNL     1      10.744  12.834  -8.434  0.00  0.00    +0.000 HD
ENDBRANCH   4  16
BRANCH   2  20
ATOM     20  O   UNL     1       6.371  13.078  -5.057  0.00  0.00    +0.000 OA
ATOM     21  H   UNL     1       6.092  13.168  -4.129  0.00  0.00    +0.000 HD
ENDBRANCH   2  20
BRANCH   1  22
ATOM     22  C   UNL     1       8.210  12.617  -2.809  0.00  0.00    +0.000 C 
ATOM     23  H   UNL     1       7.117  12.581  -2.719  0.00  0.00    +0.000 HD
BRANCH  22  24
ATOM     24  C   UNL     1       8.772  11.423  -2.042  0.00  0.00    +0.000 C 
ATOM     25  H   UNL     1       8.799  10.508  -2.641  0.00  0.00    +0.000 HD
ATOM     26  H   UNL     1       9.804  11.630  -1.737  0.00  0.00    +0.000 HD
ATOM     27  H   UNL     1       8.196  11.227  -1.131  0.00  0.00    +0.000 HD
ENDBRANCH  22  24
BRANCH  22  28
ATOM     28  C   UNL     1       8.702  13.928  -2.203  0.00  0.00    +0.000 C 
ATOM     29  H   UNL     1       8.656  13.952  -1.111  0.00  0.00    +0.000 HD
ATOM     30  H   UNL     1       8.051  14.742  -2.544  0.00  0.00    +0.000 HD
ATOM     31  H   UNL     1       9.709  14.204  -2.523  0.00  0.00    +0.000 HD
ENDBRANCH  22  28
ENDBRANCH   1  22
TORSDOF 5
ENDMDL
MODEL 5
REMARK VINA RESULT:    -4.585     32.181     33.427
REMARK INTER + INTRA:          -5.581
REMARK INTER:                  -5.376
REMARK INTRA:                  -0.205
REMARK UNBOUND:                -0.192
REMARK  Name = 16666
REMARK  5 active torsions:
REMARK  status: ('A' for Active; 'I' for Inactive)
REMARK    1  A    between atoms: O_1  and  C_3
REMARK    2  A    between atoms: C_2  and  C_8
REMARK    3  A    between atoms: C_5  and  C_9
REMARK    4  A    between atoms: C_8  and  C_10
REMARK    5  A    between atoms: C_8  and  C_11
REMARK                            x       y       z     vdW  Elec       q    Type
REMARK                         _______ _______ _______ _____ _____    ______ ____
ROOT
ATOM      1  C   UNL     1      -9.130   9.339  18.712  0.00  0.00    +0.000 C 
ATOM      2  C   UNL     1      -8.895   7.858  18.371  0.00  0.00    +0.000 C 
ATOM      3  C   UNL     1      -8.164   9.806  19.809  0.00  0.00    +0.000 C 
ATOM      4  C   UNL     1      -7.996   7.445  20.708  0.00  0.00    +0.000 C 
ATOM      5  C   UNL     1      -8.965   6.974  19.620  0.00  0.00    +0.000 C 
ATOM      6  C   UNL     1      -8.242   8.920  21.050  0.00  0.00    +0.000 C 
ATOM      7  H   UNL     1     -10.159   9.443  19.086  0.00  0.00    +0.000 HD
ATOM      8  H   UNL     1      -7.919   7.690  17.910  0.00  0.00    +0.000 HD
ATOM      9  H   UNL     1      -8.386  10.831  20.122  0.00  0.00    +0.000 HD
ATOM     10  H   UNL     1      -7.124   9.788  19.469  0.00  0.00    +0.000 HD
ATOM     11  H   UNL     1      -6.971   7.343  20.328  0.00  0.00    +0.000 HD
ATOM     12  H   UNL     1      -8.749   5.936  19.340  0.00  0.00    +0.000 HD
ATOM     13  H   UNL     1      -9.993   6.965  20.006  0.00  0.00    +0.000 HD
ATOM     14  H   UNL     1      -7.503   9.261  21.785  0.00  0.00    +0.000 HD
ATOM     15  H   UNL     1      -9.228   9.037  21.516  0.00  0.00    +0.000 HD
ENDROOT
BRANCH   4  16
ATOM     16  C   UNL     1      -8.121   6.573  21.956  0.00  0.00    +0.000 C 
ATOM     17  H   UNL     1      -7.192   6.590  22.536  0.00  0.00    +0.000 HD
ATOM     18  H   UNL     1      -8.927   6.936  22.603  0.00  0.00    +0.000 HD
ATOM     19  H   UNL     1      -8.339   5.532  21.696  0.00  0.00    +0.000 HD
ENDBRANCH   4  16
BRANCH   2  20
ATOM     20  O   UNL     1      -9.888   7.423  17.445  0.00  0.00    +0.000 OA
ATOM     21  H   UNL     1     -10.528   6.871  17.927  0.00  0.00    +0.000 HD
ENDBRANCH   2  20
BRANCH   1  22
ATOM     22  C   UNL     1      -8.994  10.225  17.471  0.00  0.00    +0.000 C 
ATOM     23  H   UNL     1      -9.794   9.978  16.761  0.00  0.00    +0.000 HD
BRANCH  22  24
ATOM     24  C   UNL     1      -9.154  11.696  17.847  0.00  0.00    +0.000 C 
ATOM     25  H   UNL     1      -8.322  12.316  17.499  0.00  0.00    +0.000 HD
ATOM     26  H   UNL     1     -10.062  12.101  17.386  0.00  0.00    +0.000 HD
ATOM     27  H   UNL     1      -9.254  11.822  18.930  0.00  0.00    +0.000 HD
ENDBRANCH  22  24
BRANCH  22  28
ATOM     28  C   UNL     1      -7.651   9.985  16.789  0.00  0.00    +0.000 C 
ATOM     29  H   UNL     1      -7.536  10.520  15.843  0.00  0.00    +0.000 HD
ATOM     30  H   UNL     1      -7.566   8.920  16.538  0.00  0.00    +0.000 HD
ATOM     31  H   UNL     1      -6.793  10.205  17.429  0.00  0.00    +0.000 HD
ENDBRANCH  22  28
ENDBRANCH   1  22
TORSDOF 5
ENDMDL
MODEL 6
REMARK VINA RESULT:    -4.513     15.174     17.182
REMARK INTER + INTRA:          -5.497
REMARK INTER:                  -5.301
REMARK INTRA:                  -0.195
REMARK UNBOUND:                -0.192
REMARK  Name = 16666
REMARK  5 active torsions:
REMARK  status: ('A' for Active; 'I' for Inactive)
REMARK    1  A    between atoms: O_1  and  C_3
REMARK    2  A    between atoms: C_2  and  C_8
REMARK    3  A    between atoms: C_5  and  C_9
REMARK    4  A    between atoms: C_8  and  C_10
REMARK    5  A    between atoms: C_8  and  C_11
REMARK                            x       y       z     vdW  Elec       q    Type
REMARK                         _______ _______ _______ _____ _____    ______ ____
ROOT
ATOM      1  C   UNL     1      -5.158  -8.370  -8.918  0.00  0.00    +0.000 C 
ATOM      2  C   UNL     1      -5.784  -8.447  -7.516  0.00  0.00    +0.000 C 
ATOM      3  C   UNL     1      -4.925  -6.910  -9.332  0.00  0.00    +0.000 C 
ATOM      4  C   UNL     1      -6.819  -6.152  -7.833  0.00  0.00    +0.000 C 
ATOM      5  C   UNL     1      -7.061  -7.607  -7.422  0.00  0.00    +0.000 C 
ATOM      6  C   UNL     1      -6.203  -6.081  -9.237  0.00  0.00    +0.000 C 
ATOM      7  H   UNL     1      -5.861  -8.826  -9.630  0.00  0.00    +0.000 HD
ATOM      8  H   UNL     1      -5.103  -8.090  -6.740  0.00  0.00    +0.000 HD
ATOM      9  H   UNL     1      -4.566  -6.843 -10.364  0.00  0.00    +0.000 HD
ATOM     10  H   UNL     1      -4.180  -6.423  -8.696  0.00  0.00    +0.000 HD
ATOM     11  H   UNL     1      -6.113  -5.702  -7.122  0.00  0.00    +0.000 HD
ATOM     12  H   UNL     1      -7.450  -7.654  -6.397  0.00  0.00    +0.000 HD
ATOM     13  H   UNL     1      -7.842  -8.053  -8.052  0.00  0.00    +0.000 HD
ATOM     14  H   UNL     1      -5.979  -5.039  -9.493  0.00  0.00    +0.000 HD
ATOM     15  H   UNL     1      -6.924  -6.443  -9.980  0.00  0.00    +0.000 HD
ENDROOT
BRANCH   4  16
ATOM     16  C   UNL     1      -8.118  -5.350  -7.773  0.00  0.00    +0.000 C 
ATOM     17  H   UNL     1      -8.593  -5.453  -6.792  0.00  0.00    +0.000 HD
ATOM     18  H   UNL     1      -7.925  -4.286  -7.943  0.00  0.00    +0.000 HD
ATOM     19  H   UNL     1      -8.831  -5.690  -8.532  0.00  0.00    +0.000 HD
ENDBRANCH   4  16
BRANCH   2  20
ATOM     20  O   UNL     1      -6.104  -9.804  -7.216  0.00  0.00    +0.000 OA
ATOM     21  H   UNL     1      -6.339 -10.248  -8.049  0.00  0.00    +0.000 HD
ENDBRANCH   2  20
BRANCH   1  22
ATOM     22  C   UNL     1      -3.848  -9.158  -8.988  0.00  0.00    +0.000 C 
ATOM     23  H   UNL     1      -3.757  -9.788  -8.094  0.00  0.00    +0.000 HD
BRANCH  22  24
ATOM     24  C   UNL     1      -3.846 -10.082 -10.203  0.00  0.00    +0.000 C 
ATOM     25  H   UNL     1      -2.840 -10.275 -10.588  0.00  0.00    +0.000 HD
ATOM     26  H   UNL     1      -4.269 -11.056  -9.929  0.00  0.00    +0.000 HD
ATOM     27  H   UNL     1      -4.460  -9.676 -11.013  0.00  0.00    +0.000 HD
ENDBRANCH  22  24
BRANCH  22  28
ATOM     28  C   UNL     1      -2.655  -8.207  -9.032  0.00  0.00    +0.000 C 
ATOM     29  H   UNL     1      -2.836  -7.252  -8.533  0.00  0.00    +0.000 HD
ATOM     30  H   UNL     1      -2.440  -7.957 -10.079  0.00  0.00    +0.000 HD
ATOM     31  H   UNL     1      -1.734  -8.646  -8.641  0.00  0.00    +0.000 HD
ENDBRANCH  22  28
ENDBRANCH   1  22
TORSDOF 5
ENDMDL
MODEL 7
REMARK VINA RESULT:    -4.500      7.392      8.485
REMARK INTER + INTRA:          -5.482
REMARK INTER:                  -5.284
REMARK INTRA:                  -0.198
REMARK UNBOUND:                -0.192
REMARK  Name = 16666
REMARK  5 active torsions:
REMARK  status: ('A' for Active; 'I' for Inactive)
REMARK    1  A    between atoms: O_1  and  C_3
REMARK    2  A    between atoms: C_2  and  C_8
REMARK    3  A    between atoms: C_5  and  C_9
REMARK    4  A    between atoms: C_8  and  C_10
REMARK    5  A    between atoms: C_8  and  C_11
REMARK                            x       y       z     vdW  Elec       q    Type
REMARK                         _______ _______ _______ _____ _____    ______ ____
ROOT
ATOM      1  C   UNL     1       9.326  -9.750  -9.083  0.00  0.00    +0.000 C 
ATOM      2  C   UNL     1       7.937  -9.094  -9.128  0.00  0.00    +0.000 C 
ATOM      3  C   UNL     1      10.098  -9.309  -7.832  0.00  0.00    +0.000 C 
ATOM      4  C   UNL     1       8.798  -7.138  -7.759  0.00  0.00    +0.000 C 
ATOM      5  C   UNL     1       8.029  -7.570  -9.011  0.00  0.00    +0.000 C 
ATOM      6  C   UNL     1      10.187  -7.789  -7.725  0.00  0.00    +0.000 C 
ATOM      7  H   UNL     1       9.886  -9.423  -9.971  0.00  0.00    +0.000 HD
ATOM      8  H   UNL     1       7.290  -9.442  -8.319  0.00  0.00    +0.000 HD
ATOM      9  H   UNL     1      11.121  -9.698  -7.839  0.00  0.00    +0.000 HD
ATOM     10  H   UNL     1       9.621  -9.666  -6.914  0.00  0.00    +0.000 HD
ATOM     11  H   UNL     1       8.237  -7.471  -6.875  0.00  0.00    +0.000 HD
ATOM     12  H   UNL     1       7.018  -7.145  -9.003  0.00  0.00    +0.000 HD
ATOM     13  H   UNL     1       8.511  -7.161  -9.910  0.00  0.00    +0.000 HD
ATOM     14  H   UNL     1      10.702  -7.520  -6.795  0.00  0.00    +0.000 HD
ATOM     15  H   UNL     1      10.800  -7.404  -8.549  0.00  0.00    +0.000 HD
ENDROOT
BRANCH   4  16
ATOM     16  C   UNL     1       8.914  -5.616  -7.694  0.00  0.00    +0.000 C 
ATOM     17  H   UNL     1       9.036  -5.280  -6.659  0.00  0.00    +0.000 HD
ATOM     18  H   UNL     1       9.782  -5.269  -8.264  0.00  0.00    +0.000 HD
ATOM     19  H   UNL     1       8.022  -5.131  -8.105  0.00  0.00    +0.000 HD
ENDBRANCH   4  16
BRANCH   2  20
ATOM     20  O   UNL     1       7.299  -9.422 -10.359  0.00  0.00    +0.000 OA
ATOM     21  H   UNL     1       7.750  -8.935 -11.071  0.00  0.00    +0.000 HD
ENDBRANCH   2  20
BRANCH   1  22
ATOM     22  C   UNL     1       9.224 -11.277  -9.134  0.00  0.00    +0.000 C 
ATOM     23  H   UNL     1       8.290 -11.560  -9.636  0.00  0.00    +0.000 HD
BRANCH  22  24
ATOM     24  C   UNL     1      10.377 -11.861  -9.945  0.00  0.00    +0.000 C 
ATOM     25  H   UNL     1      10.038 -12.411 -10.829  0.00  0.00    +0.000 HD
ATOM     26  H   UNL     1      11.024 -11.053 -10.306  0.00  0.00    +0.000 HD
ATOM     27  H   UNL     1      10.997 -12.527  -9.335  0.00  0.00    +0.000 HD
ENDBRANCH  22  24
BRANCH  22  28
ATOM     28  C   UNL     1       9.209 -11.857  -7.723  0.00  0.00    +0.000 C 
ATOM     29  H   UNL     1       9.805 -12.767  -7.615  0.00  0.00    +0.000 HD
ATOM     30  H   UNL     1       8.180 -12.146  -7.470  0.00  0.00    +0.000 HD
ATOM     31  H   UNL     1       9.509 -11.141  -6.954  0.00  0.00    +0.000 HD
ENDBRANCH  22  28
ENDBRANCH   1  22
TORSDOF 5
ENDMDL
MODEL 8
REMARK VINA RESULT:    -4.453     16.663     18.081
REMARK INTER + INTRA:          -5.426
REMARK INTER:                  -5.225
REMARK INTRA:                  -0.201
REMARK UNBOUND:                -0.192
REMARK  Name = 16666
REMARK  5 active torsions:
REMARK  status: ('A' for Active; 'I' for Inactive)
REMARK    1  A    between atoms: O_1  and  C_3
REMARK    2  A    between atoms: C_2  and  C_8
REMARK    3  A    between atoms: C_5  and  C_9
REMARK    4  A    between atoms: C_8  and  C_10
REMARK    5  A    between atoms: C_8  and  C_11
REMARK                            x       y       z     vdW  Elec       q    Type
REMARK                         _______ _______ _______ _____ _____    ______ ____
ROOT
ATOM      1  C   UNL     1       2.840  -5.394  15.100  0.00  0.00    +0.000 C 
ATOM      2  C   UNL     1       3.393  -6.406  16.116  0.00  0.00    +0.000 C 
ATOM      3  C   UNL     1       1.998  -6.099  14.028  0.00  0.00    +0.000 C 
ATOM      4  C   UNL     1       3.313  -8.237  14.360  0.00  0.00    +0.000 C 
ATOM      5  C   UNL     1       4.162  -7.536  15.425  0.00  0.00    +0.000 C 
ATOM      6  C   UNL     1       2.773  -7.223  13.344  0.00  0.00    +0.000 C 
ATOM      7  H   UNL     1       3.694  -4.907  14.607  0.00  0.00    +0.000 HD
ATOM      8  H   UNL     1       2.600  -6.869  16.709  0.00  0.00    +0.000 HD
ATOM      9  H   UNL     1       1.679  -5.399  13.250  0.00  0.00    +0.000 HD
ATOM     10  H   UNL     1       1.095  -6.548  14.453  0.00  0.00    +0.000 HD
ATOM     11  H   UNL     1       2.460  -8.718  14.857  0.00  0.00    +0.000 HD
ATOM     12  H   UNL     1       4.499  -8.258  16.180  0.00  0.00    +0.000 HD
ATOM     13  H   UNL     1       5.078  -7.134  14.974  0.00  0.00    +0.000 HD
ATOM     14  H   UNL     1       2.119  -7.728  12.624  0.00  0.00    +0.000 HD
ATOM     15  H   UNL     1       3.603  -6.791  12.770  0.00  0.00    +0.000 HD
ENDROOT
BRANCH   4  16
ATOM     16  C   UNL     1       4.121  -9.327  13.658  0.00  0.00    +0.000 C 
ATOM     17  H   UNL     1       3.482 -10.178  13.400  0.00  0.00    +0.000 HD
ATOM     18  H   UNL     1       4.562  -8.946  12.731  0.00  0.00    +0.000 HD
ATOM     19  H   UNL     1       4.933  -9.694  14.294  0.00  0.00    +0.000 HD
ENDBRANCH   4  16
BRANCH   2  20
ATOM     20  O   UNL     1       4.270  -5.739  17.019  0.00  0.00    +0.000 OA
ATOM     21  H   UNL     1       5.184  -5.968  16.775  0.00  0.00    +0.000 HD
ENDBRANCH   2  20
BRANCH   1  22
ATOM     22  C   UNL     1       2.017  -4.303  15.790  0.00  0.00    +0.000 C 
ATOM     23  H   UNL     1       2.431  -4.116  16.789  0.00  0.00    +0.000 HD
BRANCH  22  24
ATOM     24  C   UNL     1       2.103  -2.995  15.007  0.00  0.00    +0.000 C 
ATOM     25  H   UNL     1       1.195  -2.783  14.434  0.00  0.00    +0.000 HD
ATOM     26  H   UNL     1       2.241  -2.156  15.699  0.00  0.00    +0.000 HD
ATOM     27  H   UNL     1       2.957  -2.996  14.322  0.00  0.00    +0.000 HD
ENDBRANCH  22  24
BRANCH  22  28
ATOM     28  C   UNL     1       0.565  -4.746  15.942  0.00  0.00    +0.000 C 
ATOM     29  H   UNL     1       0.442  -5.648  16.547  0.00  0.00    +0.000 HD
ATOM     30  H   UNL     1       0.167  -4.999  14.951  0.00  0.00    +0.000 HD
ATOM     31  H   UNL     1      -0.090  -3.963  16.330  0.00  0.00    +0.000 HD
ENDBRANCH  22  28
ENDBRANCH   1  22
TORSDOF 5
ENDMDL
MODEL 9
REMARK VINA RESULT:    -4.407     26.804     27.910
REMARK INTER + INTRA:          -5.373
REMARK INTER:                  -5.155
REMARK INTRA:                  -0.218
REMARK UNBOUND:                -0.192
REMARK  Name = 16666
REMARK  5 active torsions:
REMARK  status: ('A' for Active; 'I' for Inactive)
REMARK    1  A    between atoms: O_1  and  C_3
REMARK    2  A    between atoms: C_2  and  C_8
REMARK    3  A    between atoms: C_5  and  C_9
REMARK    4  A    between atoms: C_8  and  C_10
REMARK    5  A    between atoms: C_8  and  C_11
REMARK                            x       y       z     vdW  Elec       q    Type
REMARK                         _______ _______ _______ _____ _____    ______ ____
ROOT
ATOM      1  C   UNL     1      10.994   6.621 -22.263  0.00  0.00    +0.000 C 
ATOM      2  C   UNL     1      10.425   5.508 -23.158  0.00  0.00    +0.000 C 
ATOM      3  C   UNL     1      12.475   6.873 -22.580  0.00  0.00    +0.000 C 
ATOM      4  C   UNL     1      12.738   4.490 -23.391  0.00  0.00    +0.000 C 
ATOM      5  C   UNL     1      11.263   4.230 -23.070  0.00  0.00    +0.000 C 
ATOM      6  C   UNL     1      13.302   5.594 -22.488  0.00  0.00    +0.000 C 
ATOM      7  H   UNL     1      10.914   6.291 -21.217  0.00  0.00    +0.000 HD
ATOM      8  H   UNL     1      10.392   5.802 -24.210  0.00  0.00    +0.000 HD
ATOM      9  H   UNL     1      12.911   7.598 -21.885  0.00  0.00    +0.000 HD
ATOM     10  H   UNL     1      12.611   7.270 -23.591  0.00  0.00    +0.000 HD
ATOM     11  H   UNL     1      12.813   4.824 -24.435  0.00  0.00    +0.000 HD
ATOM     12  H   UNL     1      10.850   3.479 -23.755  0.00  0.00    +0.000 HD
ATOM     13  H   UNL     1      11.165   3.795 -22.066  0.00  0.00    +0.000 HD
ATOM     14  H   UNL     1      14.339   5.812 -22.769  0.00  0.00    +0.000 HD
ATOM     15  H   UNL     1      13.322   5.251 -21.446  0.00  0.00    +0.000 HD
ENDROOT
BRANCH   4  16
ATOM     16  C   UNL     1      13.556   3.207 -23.250  0.00  0.00    +0.000 C 
ATOM     17  H   UNL     1      14.212   3.068 -24.116  0.00  0.00    +0.000 HD
ATOM     18  H   UNL     1      14.185   3.245 -22.354  0.00  0.00    +0.000 HD
ATOM     19  H   UNL     1      12.908   2.328 -23.171  0.00  0.00    +0.000 HD
ENDBRANCH   4  16
BRANCH   2  20
ATOM     20  O   UNL     1       9.091   5.212 -22.753  0.00  0.00    +0.000 OA
ATOM     21  H   UNL     1       8.887   4.303 -23.034  0.00  0.00    +0.000 HD
ENDBRANCH   2  20
BRANCH   1  22
ATOM     22  C   UNL     1      10.192   7.917 -22.405  0.00  0.00    +0.000 C 
ATOM     23  H   UNL     1       9.150   7.731 -22.112  0.00  0.00    +0.000 HD
BRANCH  22  24
ATOM     24  C   UNL     1      10.745   8.991 -21.473  0.00  0.00    +0.000 C 
ATOM     25  H   UNL     1      11.008   9.915 -21.999  0.00  0.00    +0.000 HD
ATOM     26  H   UNL     1       9.990   9.259 -20.725  0.00  0.00    +0.000 HD
ATOM     27  H   UNL     1      11.628   8.634 -20.932  0.00  0.00    +0.000 HD
ENDBRANCH  22  24
BRANCH  22  28
ATOM     28  C   UNL     1      10.207   8.398 -23.853  0.00  0.00    +0.000 C 
ATOM     29  H   UNL     1       9.234   8.740 -24.213  0.00  0.00    +0.000 HD
ATOM     30  H   UNL     1      10.484   7.557 -24.502  0.00  0.00    +0.000 HD
ATOM     31  H   UNL     1      10.952   9.173 -24.045  0.00  0.00    +0.000 HD
ENDBRANCH  22  28
ENDBRANCH   1  22
TORSDOF 5
ENDMDL
MODEL 10
REMARK VINA RESULT:    -4.288     34.675     36.023
REMARK INTER + INTRA:          -5.232
REMARK INTER:                  -5.040
REMARK INTRA:                  -0.192
REMARK UNBOUND:                -0.192
REMARK  Name = 16666
REMARK  5 active torsions:
REMARK  status: ('A' for Active; 'I' for Inactive)
REMARK    1  A    between atoms: O_1  and  C_3
REMARK    2  A    between atoms: C_2  and  C_8
REMARK    3  A    between atoms: C_5  and  C_9
REMARK    4  A    between atoms: C_8  and  C_10
REMARK    5  A    between atoms: C_8  and  C_11
REMARK                            x       y       z     vdW  Elec       q    Type
REMARK                         _______ _______ _______ _____ _____    ______ ____
ROOT
ATOM      1  C   UNL     1     -15.601  15.197   4.967  0.00  0.00    +0.000 C 
ATOM      2  C   UNL     1     -15.229  14.140   3.914  0.00  0.00    +0.000 C 
ATOM      3  C   UNL     1     -15.294  14.690   6.382  0.00  0.00    +0.000 C 
ATOM      4  C   UNL     1     -15.585  12.294   5.619  0.00  0.00    +0.000 C 
ATOM      5  C   UNL     1     -15.899  12.794   4.206  0.00  0.00    +0.000 C 
ATOM      6  C   UNL     1     -15.968  13.350   6.665  0.00  0.00    +0.000 C 
ATOM      7  H   UNL     1     -16.682  15.387   4.891  0.00  0.00    +0.000 HD
ATOM      8  H   UNL     1     -14.152  13.962   3.871  0.00  0.00    +0.000 HD
ATOM      9  H   UNL     1     -15.641  15.399   7.141  0.00  0.00    +0.000 HD
ATOM     10  H   UNL     1     -14.221  14.547   6.538  0.00  0.00    +0.000 HD
ATOM     11  H   UNL     1     -14.505  12.111   5.691  0.00  0.00    +0.000 HD
ATOM     12  H   UNL     1     -15.573  12.059   3.460  0.00  0.00    +0.000 HD
ATOM     13  H   UNL     1     -16.985  12.888   4.070  0.00  0.00    +0.000 HD
ATOM     14  H   UNL     1     -15.682  13.004   7.665  0.00  0.00    +0.000 HD
ATOM     15  H   UNL     1     -17.056  13.488   6.676  0.00  0.00    +0.000 HD
ENDROOT
BRANCH   4  16
ATOM     16  C   UNL     1     -16.304  10.975   5.897  0.00  0.00    +0.000 C 
ATOM     17  H   UNL     1     -17.106  11.116   6.628  0.00  0.00    +0.000 HD
ATOM     18  H   UNL     1     -16.751  10.576   4.980  0.00  0.00    +0.000 HD
ATOM     19  H   UNL     1     -15.614  10.221   6.292  0.00  0.00    +0.000 HD
ENDBRANCH   4  16
BRANCH   2  20
ATOM     20  O   UNL     1     -15.642  14.589   2.626  0.00  0.00    +0.000 OA
ATOM     21  H   UNL     1     -15.054  15.316   2.359  0.00  0.00    +0.000 HD
ENDBRANCH   2  20
BRANCH   1  22
ATOM     22  C   UNL     1     -14.877  16.521   4.707  0.00  0.00    +0.000 C 
ATOM     23  H   UNL     1     -14.321  16.450   3.764  0.00  0.00    +0.000 HD
BRANCH  22  24
ATOM     24  C   UNL     1     -15.884  17.659   4.561  0.00  0.00    +0.000 C 
ATOM     25  H   UNL     1     -15.406  18.631   4.406  0.00  0.00    +0.000 HD
ATOM     26  H   UNL     1     -16.523  17.480   3.689  0.00  0.00    +0.000 HD
ATOM     27  H   UNL     1     -16.539  17.727   5.436  0.00  0.00    +0.000 HD
ENDBRANCH  22  24
BRANCH  22  28
ATOM     28  C   UNL     1     -13.888  16.817   5.831  0.00  0.00    +0.000 C 
ATOM     29  H   UNL     1     -13.088  16.077   5.919  0.00  0.00    +0.000 HD
ATOM     30  H   UNL     1     -14.422  16.789   6.789  0.00  0.00    +0.000 HD
ATOM     31  H   UNL     1     -13.447  17.814   5.771  0.00  0.00    +0.000 HD
ENDBRANCH  22  28
ENDBRANCH   1  22
TORSDOF 5
ENDMDL
