MODEL 1
REMARK VINA RESULT:    -4.301      0.000      0.000
REMARK INTER + INTRA:          -6.628
REMARK INTER:                  -6.234
REMARK INTRA:                  -0.393
REMARK UNBOUND:                -0.315
REMARK  Name = 8091
REMARK  9 active torsions:
REMARK  status: ('A' for Active; 'I' for Inactive)
REMARK    1  A    between atoms: O_1  and  C_10
REMARK    2  A    between atoms: O_1  and  C_11
REMARK    3  A    between atoms: C_3  and  C_4
REMARK    4  A    between atoms: C_3  and  C_5
REMARK    5  A    between atoms: C_4  and  C_6
REMARK    6  A    between atoms: C_5  and  C_7
REMARK    7  A    between atoms: C_6  and  C_8
REMARK    8  A    between atoms: C_7  and  C_9
REMARK    9  A    between atoms: C_8  and  C_10
REMARK                            x       y       z     vdW  Elec       q    Type
REMARK                         _______ _______ _______ _____ _____    ______ ____
ROOT
ATOM      1  C   UNL     1       2.303  -5.758  14.365  0.00  0.00    +0.000 C 
ATOM      2  H   UNL     1       2.577  -5.468  13.343  0.00  0.00    +0.000 HD
ATOM      3  H   UNL     1       3.083  -5.370  15.032  0.00  0.00    +0.000 HD
ENDROOT
BRANCH   1   4
ATOM      4  C   UNL     1       0.955  -5.135  14.734  0.00  0.00    +0.000 C 
ATOM      5  H   UNL     1       0.946  -4.077  14.444  0.00  0.00    +0.000 HD
ATOM      6  H   UNL     1       0.156  -5.632  14.171  0.00  0.00    +0.000 HD
BRANCH   4   7
ATOM      7  C   UNL     1       0.677  -5.260  16.233  0.00  0.00    +0.000 C 
ATOM      8  H   UNL     1       0.591  -4.261  16.676  0.00  0.00    +0.000 HD
ATOM      9  H   UNL     1       1.522  -5.760  16.722  0.00  0.00    +0.000 HD
BRANCH   7  10
ATOM     10  C   UNL     1      -0.605  -6.050  16.496  0.00  0.00    +0.000 C 
ATOM     11  H   UNL     1      -1.034  -6.392  15.547  0.00  0.00    +0.000 HD
ATOM     12  H   UNL     1      -1.350  -5.403  16.974  0.00  0.00    +0.000 HD
BRANCH  10  13
ATOM     13  C   UNL     1      -0.344  -7.255  17.386  0.00  0.00    +0.000 C 
ATOM     14  H   UNL     1       0.699  -7.580  17.311  0.00  0.00    +0.000 HD
ATOM     15  H   UNL     1      -0.987  -8.096  17.105  0.00  0.00    +0.000 HD
ATOM     16  H   UNL     1      -0.549  -7.006  18.432  0.00  0.00    +0.000 HD
ENDBRANCH  10  13
ENDBRANCH   7  10
ENDBRANCH   4   7
ENDBRANCH   1   4
BRANCH   1  17
ATOM     17  C   UNL     1       2.256  -7.286  14.471  0.00  0.00    +0.000 C 
ATOM     18  H   UNL     1       2.934  -7.622  15.265  0.00  0.00    +0.000 HD
ATOM     19  H   UNL     1       1.247  -7.597  14.769  0.00  0.00    +0.000 HD
BRANCH  17  20
ATOM     20  C   UNL     1       2.635  -7.974  13.160  0.00  0.00    +0.000 C 
ATOM     21  H   UNL     1       1.850  -8.687  12.884  0.00  0.00    +0.000 HD
ATOM     22  H   UNL     1       2.725  -7.223  12.366  0.00  0.00    +0.000 HD
BRANCH  20  24
ATOM     23  O   UNL     1       4.084  -9.841  13.736  0.00  0.00    +0.000 OA
ATOM     24  C   UNL     1       3.942  -8.731  13.240  0.00  0.00    +0.000 C 
BRANCH  24  25
ATOM     25  O   UNL     1       4.921  -7.991  12.643  0.00  0.00    +0.000 OA
BRANCH  25  26
ATOM     26  C   UNL     1       5.969  -7.541  13.509  0.00  0.00    +0.000 C 
ATOM     27  H   UNL     1       5.515  -7.216  14.450  0.00  0.00    +0.000 HD
ATOM     28  H   UNL     1       6.492  -6.692  13.061  0.00  0.00    +0.000 HD
ATOM     29  H   UNL     1       6.664  -8.358  13.718  0.00  0.00    +0.000 HD
ENDBRANCH  25  26
ENDBRANCH  24  25
ENDBRANCH  20  24
ENDBRANCH  17  20
ENDBRANCH   1  17
TORSDOF 9
ENDMDL
MODEL 2
REMARK VINA RESULT:    -4.226     13.863     15.697
REMARK INTER + INTRA:          -6.517
REMARK INTER:                  -6.100
REMARK INTRA:                  -0.417
REMARK UNBOUND:                -0.315
REMARK  Name = 8091
REMARK  9 active torsions:
REMARK  status: ('A' for Active; 'I' for Inactive)
REMARK    1  A    between atoms: O_1  and  C_10
REMARK    2  A    between atoms: O_1  and  C_11
REMARK    3  A    between atoms: C_3  and  C_4
REMARK    4  A    between atoms: C_3  and  C_5
REMARK    5  A    between atoms: C_4  and  C_6
REMARK    6  A    between atoms: C_5  and  C_7
REMARK    7  A    between atoms: C_6  and  C_8
REMARK    8  A    between atoms: C_7  and  C_9
REMARK    9  A    between atoms: C_8  and  C_10
REMARK                            x       y       z     vdW  Elec       q    Type
REMARK                         _______ _______ _______ _____ _____    ______ ____
ROOT
ATOM      1  C   UNL     1       4.733 -12.972  -0.805  0.00  0.00    +0.000 C 
ATOM      2  H   UNL     1       4.396 -13.481   0.106  0.00  0.00    +0.000 HD
ATOM      3  H   UNL     1       4.310 -13.520  -1.657  0.00  0.00    +0.000 HD
ENDROOT
BRANCH   1   4
ATOM      4  C   UNL     1       4.215 -11.532  -0.812  0.00  0.00    +0.000 C 
ATOM      5  H   UNL     1       5.043 -10.841  -0.617  0.00  0.00    +0.000 HD
ATOM      6  H   UNL     1       3.818 -11.291  -1.806  0.00  0.00    +0.000 HD
BRANCH   4   7
ATOM      7  C   UNL     1       3.119 -11.331   0.236  0.00  0.00    +0.000 C 
ATOM      8  H   UNL     1       2.210 -11.858  -0.074  0.00  0.00    +0.000 HD
ATOM      9  H   UNL     1       2.868 -10.266   0.305  0.00  0.00    +0.000 HD
BRANCH   7  10
ATOM     10  C   UNL     1       3.564 -11.838   1.608  0.00  0.00    +0.000 C 
ATOM     11  H   UNL     1       4.146 -11.064   2.123  0.00  0.00    +0.000 HD
ATOM     12  H   UNL     1       4.219 -12.710   1.489  0.00  0.00    +0.000 HD
BRANCH  10  13
ATOM     13  C   UNL     1       2.374 -12.222   2.473  0.00  0.00    +0.000 C 
ATOM     14  H   UNL     1       1.872 -11.333   2.868  0.00  0.00    +0.000 HD
ATOM     15  H   UNL     1       2.689 -12.843   3.319  0.00  0.00    +0.000 HD
ATOM     16  H   UNL     1       1.647 -12.792   1.887  0.00  0.00    +0.000 HD
ENDBRANCH  10  13
ENDBRANCH   7  10
ENDBRANCH   4   7
ENDBRANCH   1   4
BRANCH   1  17
ATOM     17  C   UNL     1       6.262 -13.012  -0.883  0.00  0.00    +0.000 C 
ATOM     18  H   UNL     1       6.602 -14.054  -0.942  0.00  0.00    +0.000 HD
ATOM     19  H   UNL     1       6.591 -12.525  -1.809  0.00  0.00    +0.000 HD
BRANCH  17  20
ATOM     20  C   UNL     1       6.926 -12.333   0.314  0.00  0.00    +0.000 C 
ATOM     21  H   UNL     1       6.215 -11.638   0.777  0.00  0.00    +0.000 HD
ATOM     22  H   UNL     1       7.210 -13.091   1.053  0.00  0.00    +0.000 HD
BRANCH  20  24
ATOM     23  O   UNL     1       9.311 -11.860   0.242  0.00  0.00    +0.000 OA
ATOM     24  C   UNL     1       8.166 -11.549  -0.056  0.00  0.00    +0.000 C 
BRANCH  24  25
ATOM     25  O   UNL     1       7.799 -10.465  -0.800  0.00  0.00    +0.000 OA
BRANCH  25  26
ATOM     26  C   UNL     1       8.486  -9.246  -0.494  0.00  0.00    +0.000 C 
ATOM     27  H   UNL     1       8.069  -8.454  -1.122  0.00  0.00    +0.000 HD
ATOM     28  H   UNL     1       9.552  -9.347  -0.719  0.00  0.00    +0.000 HD
ATOM     29  H   UNL     1       8.335  -8.980   0.556  0.00  0.00    +0.000 HD
ENDBRANCH  25  26
ENDBRANCH  24  25
ENDBRANCH  20  24
ENDBRANCH  17  20
ENDBRANCH   1  17
TORSDOF 9
ENDMDL
MODEL 3
REMARK VINA RESULT:    -4.198      2.707      3.483
REMARK INTER + INTRA:          -6.477
REMARK INTER:                  -6.002
REMARK INTRA:                  -0.474
REMARK UNBOUND:                -0.315
REMARK  Name = 8091
REMARK  9 active torsions:
REMARK  status: ('A' for Active; 'I' for Inactive)
REMARK    1  A    between atoms: O_1  and  C_10
REMARK    2  A    between atoms: O_1  and  C_11
REMARK    3  A    between atoms: C_3  and  C_4
REMARK    4  A    between atoms: C_3  and  C_5
REMARK    5  A    between atoms: C_4  and  C_6
REMARK    6  A    between atoms: C_5  and  C_7
REMARK    7  A    between atoms: C_6  and  C_8
REMARK    8  A    between atoms: C_7  and  C_9
REMARK    9  A    between atoms: C_8  and  C_10
REMARK                            x       y       z     vdW  Elec       q    Type
REMARK                         _______ _______ _______ _____ _____    ______ ____
ROOT
ATOM      1  C   UNL     1       0.904  -5.543  14.707  0.00  0.00    +0.000 C 
ATOM      2  H   UNL     1       1.937  -5.887  14.580  0.00  0.00    +0.000 HD
ATOM      3  H   UNL     1       0.515  -5.313  13.707  0.00  0.00    +0.000 HD
ENDROOT
BRANCH   1   4
ATOM      4  C   UNL     1       0.064  -6.653  15.342  0.00  0.00    +0.000 C 
ATOM      5  H   UNL     1      -0.711  -6.979  14.637  0.00  0.00    +0.000 HD
ATOM      6  H   UNL     1       0.701  -7.522  15.547  0.00  0.00    +0.000 HD
BRANCH   4   7
ATOM      7  C   UNL     1      -0.590  -6.181  16.642  0.00  0.00    +0.000 C 
ATOM      8  H   UNL     1      -1.675  -6.111  16.504  0.00  0.00    +0.000 HD
ATOM      9  H   UNL     1      -0.230  -5.175  16.889  0.00  0.00    +0.000 HD
BRANCH   7  10
ATOM     10  C   UNL     1      -0.279  -7.132  17.797  0.00  0.00    +0.000 C 
ATOM     11  H   UNL     1      -1.064  -7.063  18.560  0.00  0.00    +0.000 HD
ATOM     12  H   UNL     1       0.663  -6.840  18.276  0.00  0.00    +0.000 HD
BRANCH  10  13
ATOM     13  C   UNL     1      -0.174  -8.572  17.322  0.00  0.00    +0.000 C 
ATOM     14  H   UNL     1      -0.859  -9.220  17.878  0.00  0.00    +0.000 HD
ATOM     15  H   UNL     1       0.844  -8.954  17.452  0.00  0.00    +0.000 HD
ATOM     16  H   UNL     1      -0.429  -8.640  16.259  0.00  0.00    +0.000 HD
ENDBRANCH  10  13
ENDBRANCH   7  10
ENDBRANCH   4   7
ENDBRANCH   1   4
BRANCH   1  17
ATOM     17  C   UNL     1       0.885  -4.273  15.564  0.00  0.00    +0.000 C 
ATOM     18  H   UNL     1       0.232  -3.523  15.101  0.00  0.00    +0.000 HD
ATOM     19  H   UNL     1       0.449  -4.504  16.544  0.00  0.00    +0.000 HD
BRANCH  17  20
ATOM     20  C   UNL     1       2.280  -3.677  15.755  0.00  0.00    +0.000 C 
ATOM     21  H   UNL     1       2.632  -3.265  14.803  0.00  0.00    +0.000 HD
ATOM     22  H   UNL     1       2.233  -2.869  16.494  0.00  0.00    +0.000 HD
BRANCH  20  24
ATOM     23  O   UNL     1       3.283  -5.252  17.315  0.00  0.00    +0.000 OA
ATOM     24  C   UNL     1       3.301  -4.689  16.229  0.00  0.00    +0.000 C 
BRANCH  24  25
ATOM     25  O   UNL     1       4.218  -4.890  15.238  0.00  0.00    +0.000 OA
BRANCH  25  26
ATOM     26  C   UNL     1       4.774  -6.208  15.171  0.00  0.00    +0.000 C 
ATOM     27  H   UNL     1       3.947  -6.923  15.134  0.00  0.00    +0.000 HD
ATOM     28  H   UNL     1       5.374  -6.411  16.063  0.00  0.00    +0.000 HD
ATOM     29  H   UNL     1       5.376  -6.319  14.265  0.00  0.00    +0.000 HD
ENDBRANCH  25  26
ENDBRANCH  24  25
ENDBRANCH  20  24
ENDBRANCH  17  20
ENDBRANCH   1  17
TORSDOF 9
ENDMDL
MODEL 4
REMARK VINA RESULT:    -4.099     15.874     18.225
REMARK INTER + INTRA:          -6.331
REMARK INTER:                  -6.139
REMARK INTRA:                  -0.192
REMARK UNBOUND:                -0.315
REMARK  Name = 8091
REMARK  9 active torsions:
REMARK  status: ('A' for Active; 'I' for Inactive)
REMARK    1  A    between atoms: O_1  and  C_10
REMARK    2  A    between atoms: O_1  and  C_11
REMARK    3  A    between atoms: C_3  and  C_4
REMARK    4  A    between atoms: C_3  and  C_5
REMARK    5  A    between atoms: C_4  and  C_6
REMARK    6  A    between atoms: C_5  and  C_7
REMARK    7  A    between atoms: C_6  and  C_8
REMARK    8  A    between atoms: C_7  and  C_9
REMARK    9  A    between atoms: C_8  and  C_10
REMARK                            x       y       z     vdW  Elec       q    Type
REMARK                         _______ _______ _______ _____ _____    ______ ____
ROOT
ATOM      1  C   UNL     1       9.999 -10.045  -0.247  0.00  0.00    +0.000 C 
ATOM      2  H   UNL     1      10.377 -11.074  -0.217  0.00  0.00    +0.000 HD
ATOM      3  H   UNL     1      10.206  -9.595   0.732  0.00  0.00    +0.000 HD
ENDROOT
BRANCH   1   4
ATOM      4  C   UNL     1      10.728  -9.259  -1.339  0.00  0.00    +0.000 C 
ATOM      5  H   UNL     1      10.043  -8.530  -1.788  0.00  0.00    +0.000 HD
ATOM      6  H   UNL     1      11.555  -8.694  -0.892  0.00  0.00    +0.000 HD
BRANCH   4   7
ATOM      7  C   UNL     1      11.272 -10.190  -2.424  0.00  0.00    +0.000 C 
ATOM      8  H   UNL     1      10.531 -10.296  -3.224  0.00  0.00    +0.000 HD
ATOM      9  H   UNL     1      11.438 -11.188  -2.002  0.00  0.00    +0.000 HD
BRANCH   7  10
ATOM     10  C   UNL     1      12.583  -9.659  -3.005  0.00  0.00    +0.000 C 
ATOM     11  H   UNL     1      13.386 -10.387  -2.843  0.00  0.00    +0.000 HD
ATOM     12  H   UNL     1      12.874  -8.737  -2.486  0.00  0.00    +0.000 HD
BRANCH  10  13
ATOM     13  C   UNL     1      12.460  -9.378  -4.493  0.00  0.00    +0.000 C 
ATOM     14  H   UNL     1      13.388  -8.955  -4.892  0.00  0.00    +0.000 HD
ATOM     15  H   UNL     1      11.648  -8.670  -4.693  0.00  0.00    +0.000 HD
ATOM     16  H   UNL     1      12.246 -10.303  -5.038  0.00  0.00    +0.000 HD
ENDBRANCH  10  13
ENDBRANCH   7  10
ENDBRANCH   4   7
ENDBRANCH   1   4
BRANCH   1  17
ATOM     17  C   UNL     1       8.486 -10.059  -0.489  0.00  0.00    +0.000 C 
ATOM     18  H   UNL     1       7.968  -9.637   0.381  0.00  0.00    +0.000 HD
ATOM     19  H   UNL     1       8.249  -9.407  -1.339  0.00  0.00    +0.000 HD
BRANCH  17  20
ATOM     20  C   UNL     1       7.951 -11.464  -0.761  0.00  0.00    +0.000 C 
ATOM     21  H   UNL     1       7.629 -11.535  -1.806  0.00  0.00    +0.000 HD
ATOM     22  H   UNL     1       8.747 -12.198  -0.587  0.00  0.00    +0.000 HD
BRANCH  20  24
ATOM     23  O   UNL     1       6.827 -12.042   1.318  0.00  0.00    +0.000 OA
ATOM     24  C   UNL     1       6.773 -11.834   0.112  0.00  0.00    +0.000 C 
BRANCH  24  25
ATOM     25  O   UNL     1       5.644 -11.865  -0.655  0.00  0.00    +0.000 OA
BRANCH  25  26
ATOM     26  C   UNL     1       5.087 -13.164  -0.880  0.00  0.00    +0.000 C 
ATOM     27  H   UNL     1       3.997 -13.068  -0.895  0.00  0.00    +0.000 HD
ATOM     28  H   UNL     1       5.368 -13.842  -0.069  0.00  0.00    +0.000 HD
ATOM     29  H   UNL     1       5.419 -13.556  -1.845  0.00  0.00    +0.000 HD
ENDBRANCH  25  26
ENDBRANCH  24  25
ENDBRANCH  20  24
ENDBRANCH  17  20
ENDBRANCH   1  17
TORSDOF 9
ENDMDL
MODEL 5
REMARK VINA RESULT:    -4.035     13.819     16.551
REMARK INTER + INTRA:          -6.238
REMARK INTER:                  -6.111
REMARK INTRA:                  -0.127
REMARK UNBOUND:                -0.315
REMARK  Name = 8091
REMARK  9 active torsions:
REMARK  status: ('A' for Active; 'I' for Inactive)
REMARK    1  A    between atoms: O_1  and  C_10
REMARK    2  A    between atoms: O_1  and  C_11
REMARK    3  A    between atoms: C_3  and  C_4
REMARK    4  A    between atoms: C_3  and  C_5
REMARK    5  A    between atoms: C_4  and  C_6
REMARK    6  A    between atoms: C_5  and  C_7
REMARK    7  A    between atoms: C_6  and  C_8
REMARK    8  A    between atoms: C_7  and  C_9
REMARK    9  A    between atoms: C_8  and  C_10
REMARK                            x       y       z     vdW  Elec       q    Type
REMARK                         _______ _______ _______ _____ _____    ______ ____
ROOT
ATOM      1  C   UNL     1       7.881 -11.803  -0.255  0.00  0.00    +0.000 C 
ATOM      2  H   UNL     1       8.346 -12.453  -1.006  0.00  0.00    +0.000 HD
ATOM      3  H   UNL     1       8.188 -12.177   0.731  0.00  0.00    +0.000 HD
ENDROOT
BRANCH   1   4
ATOM      4  C   UNL     1       8.378 -10.368  -0.437  0.00  0.00    +0.000 C 
ATOM      5  H   UNL     1       8.014  -9.969  -1.392  0.00  0.00    +0.000 HD
ATOM      6  H   UNL     1       7.965  -9.734   0.357  0.00  0.00    +0.000 HD
BRANCH   4   7
ATOM      7  C   UNL     1       9.906 -10.300  -0.401  0.00  0.00    +0.000 C 
ATOM      8  H   UNL     1      10.325 -11.274  -0.678  0.00  0.00    +0.000 HD
ATOM      9  H   UNL     1      10.240 -10.083   0.621  0.00  0.00    +0.000 HD
BRANCH   7  10
ATOM     10  C   UNL     1      10.437  -9.224  -1.348  0.00  0.00    +0.000 C 
ATOM     11  H   UNL     1      10.903  -8.415  -0.772  0.00  0.00    +0.000 HD
ATOM     12  H   UNL     1       9.607  -8.782  -1.913  0.00  0.00    +0.000 HD
BRANCH  10  13
ATOM     13  C   UNL     1      11.458  -9.792  -2.321  0.00  0.00    +0.000 C 
ATOM     14  H   UNL     1      10.970 -10.171  -3.225  0.00  0.00    +0.000 HD
ATOM     15  H   UNL     1      12.019 -10.614  -1.864  0.00  0.00    +0.000 HD
ATOM     16  H   UNL     1      12.171  -9.017  -2.618  0.00  0.00    +0.000 HD
ENDBRANCH  10  13
ENDBRANCH   7  10
ENDBRANCH   4   7
ENDBRANCH   1   4
BRANCH   1  17
ATOM     17  C   UNL     1       6.356 -11.883  -0.377  0.00  0.00    +0.000 C 
ATOM     18  H   UNL     1       5.924 -10.879  -0.275  0.00  0.00    +0.000 HD
ATOM     19  H   UNL     1       6.091 -12.235  -1.381  0.00  0.00    +0.000 HD
BRANCH  17  20
ATOM     20  C   UNL     1       5.734 -12.808   0.669  0.00  0.00    +0.000 C 
ATOM     21  H   UNL     1       5.533 -13.785   0.215  0.00  0.00    +0.000 HD
ATOM     22  H   UNL     1       6.436 -12.943   1.500  0.00  0.00    +0.000 HD
BRANCH  20  24
ATOM     23  O   UNL     1       3.581 -11.678   0.594  0.00  0.00    +0.000 OA
ATOM     24  C   UNL     1       4.433 -12.281   1.233  0.00  0.00    +0.000 C 
BRANCH  24  25
ATOM     25  O   UNL     1       4.354 -12.618   2.553  0.00  0.00    +0.000 OA
BRANCH  25  26
ATOM     26  C   UNL     1       3.032 -12.660   3.101  0.00  0.00    +0.000 C 
ATOM     27  H   UNL     1       2.382 -12.049   2.468  0.00  0.00    +0.000 HD
ATOM     28  H   UNL     1       3.028 -12.245   4.113  0.00  0.00    +0.000 HD
ATOM     29  H   UNL     1       2.655 -13.687   3.102  0.00  0.00    +0.000 HD
ENDBRANCH  25  26
ENDBRANCH  24  25
ENDBRANCH  20  24
ENDBRANCH  17  20
ENDBRANCH   1  17
TORSDOF 9
ENDMDL
MODEL 6
REMARK VINA RESULT:    -3.980      3.217      4.897
REMARK INTER + INTRA:          -6.156
REMARK INTER:                  -5.946
REMARK INTRA:                  -0.210
REMARK UNBOUND:                -0.315
REMARK  Name = 8091
REMARK  9 active torsions:
REMARK  status: ('A' for Active; 'I' for Inactive)
REMARK    1  A    between atoms: O_1  and  C_10
REMARK    2  A    between atoms: O_1  and  C_11
REMARK    3  A    between atoms: C_3  and  C_4
REMARK    4  A    between atoms: C_3  and  C_5
REMARK    5  A    between atoms: C_4  and  C_6
REMARK    6  A    between atoms: C_5  and  C_7
REMARK    7  A    between atoms: C_6  and  C_8
REMARK    8  A    between atoms: C_7  and  C_9
REMARK    9  A    between atoms: C_8  and  C_10
REMARK                            x       y       z     vdW  Elec       q    Type
REMARK                         _______ _______ _______ _____ _____    ______ ____
ROOT
ATOM      1  C   UNL     1      -0.096  -7.229  17.612  0.00  0.00    +0.000 C 
ATOM      2  H   UNL     1      -0.612  -7.040  18.561  0.00  0.00    +0.000 HD
ATOM      3  H   UNL     1       0.979  -7.268  17.831  0.00  0.00    +0.000 HD
ENDROOT
BRANCH   1   4
ATOM      4  C   UNL     1      -0.552  -8.572  17.036  0.00  0.00    +0.000 C 
ATOM      5  H   UNL     1      -1.646  -8.589  16.961  0.00  0.00    +0.000 HD
ATOM      6  H   UNL     1      -0.155  -8.687  16.020  0.00  0.00    +0.000 HD
BRANCH   4   7
ATOM      7  C   UNL     1      -0.078  -9.739  17.905  0.00  0.00    +0.000 C 
ATOM      8  H   UNL     1      -0.171  -9.471  18.964  0.00  0.00    +0.000 HD
ATOM      9  H   UNL     1       0.984  -9.932  17.712  0.00  0.00    +0.000 HD
BRANCH   7  10
ATOM     10  C   UNL     1      -0.886 -11.005  17.623  0.00  0.00    +0.000 C 
ATOM     11  H   UNL     1      -1.486 -10.871  16.715  0.00  0.00    +0.000 HD
ATOM     12  H   UNL     1      -1.585 -11.192  18.447  0.00  0.00    +0.000 HD
BRANCH  10  13
ATOM     13  C   UNL     1       0.017 -12.215  17.448  0.00  0.00    +0.000 C 
ATOM     14  H   UNL     1      -0.427 -13.106  17.904  0.00  0.00    +0.000 HD
ATOM     15  H   UNL     1       0.995 -12.044  17.909  0.00  0.00    +0.000 HD
ATOM     16  H   UNL     1       0.174 -12.421  16.384  0.00  0.00    +0.000 HD
ENDBRANCH  10  13
ENDBRANCH   7  10
ENDBRANCH   4   7
ENDBRANCH   1   4
BRANCH   1  17
ATOM     17  C   UNL     1      -0.376  -6.082  16.636  0.00  0.00    +0.000 C 
ATOM     18  H   UNL     1      -1.458  -5.920  16.555  0.00  0.00    +0.000 HD
ATOM     19  H   UNL     1       0.049  -5.153  17.037  0.00  0.00    +0.000 HD
BRANCH  17  20
ATOM     20  C   UNL     1       0.200  -6.346  15.245  0.00  0.00    +0.000 C 
ATOM     21  H   UNL     1       0.730  -7.305  15.247  0.00  0.00    +0.000 HD
ATOM     22  H   UNL     1      -0.617  -6.397  14.516  0.00  0.00    +0.000 HD
BRANCH  20  24
ATOM     23  O   UNL     1       1.991  -5.412  13.889  0.00  0.00    +0.000 OA
ATOM     24  C   UNL     1       1.171  -5.280  14.789  0.00  0.00    +0.000 C 
BRANCH  24  25
ATOM     25  O   UNL     1       0.961  -4.147  15.521  0.00  0.00    +0.000 OA
BRANCH  25  26
ATOM     26  C   UNL     1       1.736  -3.008  15.129  0.00  0.00    +0.000 C 
ATOM     27  H   UNL     1       1.903  -2.390  16.016  0.00  0.00    +0.000 HD
ATOM     28  H   UNL     1       1.190  -2.417  14.387  0.00  0.00    +0.000 HD
ATOM     29  H   UNL     1       2.704  -3.326  14.735  0.00  0.00    +0.000 HD
ENDBRANCH  25  26
ENDBRANCH  24  25
ENDBRANCH  20  24
ENDBRANCH  17  20
ENDBRANCH   1  17
TORSDOF 9
ENDMDL
MODEL 7
REMARK VINA RESULT:    -3.933     25.445     26.510
REMARK INTER + INTRA:          -6.088
REMARK INTER:                  -5.805
REMARK INTRA:                  -0.283
REMARK UNBOUND:                -0.315
REMARK  Name = 8091
REMARK  9 active torsions:
REMARK  status: ('A' for Active; 'I' for Inactive)
REMARK    1  A    between atoms: O_1  and  C_10
REMARK    2  A    between atoms: O_1  and  C_11
REMARK    3  A    between atoms: C_3  and  C_4
REMARK    4  A    between atoms: C_3  and  C_5
REMARK    5  A    between atoms: C_4  and  C_6
REMARK    6  A    between atoms: C_5  and  C_7
REMARK    7  A    between atoms: C_6  and  C_8
REMARK    8  A    between atoms: C_7  and  C_9
REMARK    9  A    between atoms: C_8  and  C_10
REMARK                            x       y       z     vdW  Elec       q    Type
REMARK                         _______ _______ _______ _____ _____    ______ ____
ROOT
ATOM      1  C   UNL     1       7.230  13.446  -2.050  0.00  0.00    +0.000 C 
ATOM      2  H   UNL     1       6.864  13.380  -3.082  0.00  0.00    +0.000 HD
ATOM      3  H   UNL     1       7.603  14.468  -1.904  0.00  0.00    +0.000 HD
ENDROOT
BRANCH   1   4
ATOM      4  C   UNL     1       6.080  13.176  -1.077  0.00  0.00    +0.000 C 
ATOM      5  H   UNL     1       5.797  14.108  -0.572  0.00  0.00    +0.000 HD
ATOM      6  H   UNL     1       5.202  12.830  -1.636  0.00  0.00    +0.000 HD
BRANCH   4   7
ATOM      7  C   UNL     1       6.469  12.125  -0.036  0.00  0.00    +0.000 C 
ATOM      8  H   UNL     1       7.461  11.723  -0.271  0.00  0.00    +0.000 HD
ATOM      9  H   UNL     1       5.763  11.287  -0.079  0.00  0.00    +0.000 HD
BRANCH   7  10
ATOM     10  C   UNL     1       6.474  12.715   1.374  0.00  0.00    +0.000 C 
ATOM     11  H   UNL     1       6.118  13.751   1.347  0.00  0.00    +0.000 HD
ATOM     12  H   UNL     1       7.498  12.735   1.766  0.00  0.00    +0.000 HD
BRANCH  10  13
ATOM     13  C   UNL     1       5.593  11.911   2.318  0.00  0.00    +0.000 C 
ATOM     14  H   UNL     1       5.813  10.841   2.245  0.00  0.00    +0.000 HD
ATOM     15  H   UNL     1       4.533  12.061   2.086  0.00  0.00    +0.000 HD
ATOM     16  H   UNL     1       5.762  12.224   3.353  0.00  0.00    +0.000 HD
ENDBRANCH  10  13
ENDBRANCH   7  10
ENDBRANCH   4   7
ENDBRANCH   1   4
BRANCH   1  17
ATOM     17  C   UNL     1       8.377  12.452  -1.845  0.00  0.00    +0.000 C 
ATOM     18  H   UNL     1       9.278  12.988  -1.520  0.00  0.00    +0.000 HD
ATOM     19  H   UNL     1       8.116  11.761  -1.033  0.00  0.00    +0.000 HD
BRANCH  17  20
ATOM     20  C   UNL     1       8.692  11.655  -3.110  0.00  0.00    +0.000 C 
ATOM     21  H   UNL     1       9.270  10.763  -2.843  0.00  0.00    +0.000 HD
ATOM     22  H   UNL     1       7.756  11.339  -3.585  0.00  0.00    +0.000 HD
BRANCH  20  24
ATOM     23  O   UNL     1      10.682  12.711  -4.028  0.00  0.00    +0.000 OA
ATOM     24  C   UNL     1       9.493  12.440  -4.125  0.00  0.00    +0.000 C 
BRANCH  24  25
ATOM     25  O   UNL     1       8.682  12.764  -5.174  0.00  0.00    +0.000 OA
BRANCH  25  26
ATOM     26  C   UNL     1       9.148  12.352  -6.464  0.00  0.00    +0.000 C 
ATOM     27  H   UNL     1       9.448  13.247  -7.018  0.00  0.00    +0.000 HD
ATOM     28  H   UNL     1       8.346  11.852  -7.014  0.00  0.00    +0.000 HD
ATOM     29  H   UNL     1      10.016  11.695  -6.361  0.00  0.00    +0.000 HD
ENDBRANCH  25  26
ENDBRANCH  24  25
ENDBRANCH  20  24
ENDBRANCH  17  20
ENDBRANCH   1  17
TORSDOF 9
ENDMDL
MODEL 8
REMARK VINA RESULT:    -3.929     22.988     24.327
REMARK INTER + INTRA:          -6.081
REMARK INTER:                  -5.586
REMARK INTRA:                  -0.495
REMARK UNBOUND:                -0.315
REMARK  Name = 8091
REMARK  9 active torsions:
REMARK  status: ('A' for Active; 'I' for Inactive)
REMARK    1  A    between atoms: O_1  and  C_10
REMARK    2  A    between atoms: O_1  and  C_11
REMARK    3  A    between atoms: C_3  and  C_4
REMARK    4  A    between atoms: C_3  and  C_5
REMARK    5  A    between atoms: C_4  and  C_6
REMARK    6  A    between atoms: C_5  and  C_7
REMARK    7  A    between atoms: C_6  and  C_8
REMARK    8  A    between atoms: C_7  and  C_9
REMARK    9  A    between atoms: C_8  and  C_10
REMARK                            x       y       z     vdW  Elec       q    Type
REMARK                         _______ _______ _______ _____ _____    ______ ____
ROOT
ATOM      1  C   UNL     1      -2.887  -8.027  -9.317  0.00  0.00    +0.000 C 
ATOM      2  H   UNL     1      -2.168  -8.319 -10.092  0.00  0.00    +0.000 HD
ATOM      3  H   UNL     1      -2.319  -7.867  -8.391  0.00  0.00    +0.000 HD
ENDROOT
BRANCH   1   4
ATOM      4  C   UNL     1      -3.583  -6.726  -9.723  0.00  0.00    +0.000 C 
ATOM      5  H   UNL     1      -3.273  -5.916  -9.051  0.00  0.00    +0.000 HD
ATOM      6  H   UNL     1      -3.269  -6.444 -10.736  0.00  0.00    +0.000 HD
BRANCH   4   7
ATOM      7  C   UNL     1      -5.105  -6.874  -9.683  0.00  0.00    +0.000 C 
ATOM      8  H   UNL     1      -5.370  -7.936  -9.617  0.00  0.00    +0.000 HD
ATOM      9  H   UNL     1      -5.536  -6.491 -10.615  0.00  0.00    +0.000 HD
BRANCH   7  10
ATOM     10  C   UNL     1      -5.705  -6.120  -8.496  0.00  0.00    +0.000 C 
ATOM     11  H   UNL     1      -5.230  -5.137  -8.399  0.00  0.00    +0.000 HD
ATOM     12  H   UNL     1      -5.507  -6.669  -7.567  0.00  0.00    +0.000 HD
BRANCH  10  13
ATOM     13  C   UNL     1      -7.205  -5.933  -8.656  0.00  0.00    +0.000 C 
ATOM     14  H   UNL     1      -7.710  -6.896  -8.782  0.00  0.00    +0.000 HD
ATOM     15  H   UNL     1      -7.431  -5.309  -9.528  0.00  0.00    +0.000 HD
ATOM     16  H   UNL     1      -7.623  -5.443  -7.771  0.00  0.00    +0.000 HD
ENDBRANCH  10  13
ENDBRANCH   7  10
ENDBRANCH   4   7
ENDBRANCH   1   4
BRANCH   1  17
ATOM     17  C   UNL     1      -3.900  -9.156  -9.102  0.00  0.00    +0.000 C 
ATOM     18  H   UNL     1      -4.915  -8.781  -9.285  0.00  0.00    +0.000 HD
ATOM     19  H   UNL     1      -3.722  -9.947  -9.842  0.00  0.00    +0.000 HD
BRANCH  17  20
ATOM     20  C   UNL     1      -3.826  -9.747  -7.695  0.00  0.00    +0.000 C 
ATOM     21  H   UNL     1      -3.534 -10.801  -7.759  0.00  0.00    +0.000 HD
ATOM     22  H   UNL     1      -3.072  -9.206  -7.111  0.00  0.00    +0.000 HD
BRANCH  20  24
ATOM     23  O   UNL     1      -5.284  -9.227  -5.818  0.00  0.00    +0.000 OA
ATOM     24  C   UNL     1      -5.140  -9.674  -6.948  0.00  0.00    +0.000 C 
BRANCH  24  25
ATOM     25  O   UNL     1      -6.134 -10.156  -7.750  0.00  0.00    +0.000 OA
BRANCH  25  26
ATOM     26  C   UNL     1      -7.399  -9.498  -7.627  0.00  0.00    +0.000 C 
ATOM     27  H   UNL     1      -8.063 -10.145  -7.047  0.00  0.00    +0.000 HD
ATOM     28  H   UNL     1      -7.840  -9.339  -8.616  0.00  0.00    +0.000 HD
ATOM     29  H   UNL     1      -7.282  -8.549  -7.098  0.00  0.00    +0.000 HD
ENDBRANCH  25  26
ENDBRANCH  24  25
ENDBRANCH  20  24
ENDBRANCH  17  20
ENDBRANCH   1  17
TORSDOF 9
ENDMDL
MODEL 9
REMARK VINA RESULT:    -3.892     17.899     20.269
REMARK INTER + INTRA:          -6.027
REMARK INTER:                  -5.788
REMARK INTRA:                  -0.239
REMARK UNBOUND:                -0.315
REMARK  Name = 8091
REMARK  9 active torsions:
REMARK  status: ('A' for Active; 'I' for Inactive)
REMARK    1  A    between atoms: O_1  and  C_10
REMARK    2  A    between atoms: O_1  and  C_11
REMARK    3  A    between atoms: C_3  and  C_4
REMARK    4  A    between atoms: C_3  and  C_5
REMARK    5  A    between atoms: C_4  and  C_6
REMARK    6  A    between atoms: C_5  and  C_7
REMARK    7  A    between atoms: C_6  and  C_8
REMARK    8  A    between atoms: C_7  and  C_9
REMARK    9  A    between atoms: C_8  and  C_10
REMARK                            x       y       z     vdW  Elec       q    Type
REMARK                         _______ _______ _______ _____ _____    ______ ____
ROOT
ATOM      1  C   UNL     1      11.220 -10.260  -2.709  0.00  0.00    +0.000 C 
ATOM      2  H   UNL     1      11.336 -11.347  -2.801  0.00  0.00    +0.000 HD
ATOM      3  H   UNL     1      10.385  -9.968  -3.360  0.00  0.00    +0.000 HD
ENDROOT
BRANCH   1   4
ATOM      4  C   UNL     1      10.893  -9.897  -1.260  0.00  0.00    +0.000 C 
ATOM      5  H   UNL     1      10.149 -10.598  -0.862  0.00  0.00    +0.000 HD
ATOM      6  H   UNL     1      11.795  -9.998  -0.645  0.00  0.00    +0.000 HD
BRANCH   4   7
ATOM      7  C   UNL     1      10.360  -8.467  -1.152  0.00  0.00    +0.000 C 
ATOM      8  H   UNL     1      10.428  -7.974  -2.128  0.00  0.00    +0.000 HD
ATOM      9  H   UNL     1      10.984  -7.894  -0.456  0.00  0.00    +0.000 HD
BRANCH   7  10
ATOM     10  C   UNL     1       8.909  -8.450  -0.668  0.00  0.00    +0.000 C 
ATOM     11  H   UNL     1       8.266  -7.995  -1.431  0.00  0.00    +0.000 HD
ATOM     12  H   UNL     1       8.826  -7.833   0.235  0.00  0.00    +0.000 HD
BRANCH  10  13
ATOM     13  C   UNL     1       8.406  -9.851  -0.366  0.00  0.00    +0.000 C 
ATOM     14  H   UNL     1       7.721 -10.200  -1.145  0.00  0.00    +0.000 HD
ATOM     15  H   UNL     1       7.877  -9.879   0.593  0.00  0.00    +0.000 HD
ATOM     16  H   UNL     1       9.244 -10.553  -0.311  0.00  0.00    +0.000 HD
ENDBRANCH  10  13
ENDBRANCH   7  10
ENDBRANCH   4   7
ENDBRANCH   1   4
BRANCH   1  17
ATOM     17  C   UNL     1      12.500  -9.564  -3.181  0.00  0.00    +0.000 C 
ATOM     18  H   UNL     1      12.298  -9.001  -4.101  0.00  0.00    +0.000 HD
ATOM     19  H   UNL     1      12.811  -8.828  -2.429  0.00  0.00    +0.000 HD
BRANCH  17  20
ATOM     20  C   UNL     1      13.641 -10.548  -3.433  0.00  0.00    +0.000 C 
ATOM     21  H   UNL     1      14.192 -10.712  -2.500  0.00  0.00    +0.000 HD
ATOM     22  H   UNL     1      13.229 -11.506  -3.773  0.00  0.00    +0.000 HD
BRANCH  20  24
ATOM     23  O   UNL     1      14.655  -8.937  -4.949  0.00  0.00    +0.000 OA
ATOM     24  C   UNL     1      14.627 -10.065  -4.475  0.00  0.00    +0.000 C 
BRANCH  24  25
ATOM     25  O   UNL     1      15.491 -11.079  -4.771  0.00  0.00    +0.000 OA
BRANCH  25  26
ATOM     26  C   UNL     1      15.451 -12.203  -3.884  0.00  0.00    +0.000 C 
ATOM     27  H   UNL     1      16.032 -13.012  -4.335  0.00  0.00    +0.000 HD
ATOM     28  H   UNL     1      14.419 -12.543  -3.752  0.00  0.00    +0.000 HD
ATOM     29  H   UNL     1      15.899 -11.942  -2.922  0.00  0.00    +0.000 HD
ENDBRANCH  25  26
ENDBRANCH  24  25
ENDBRANCH  20  24
ENDBRANCH  17  20
ENDBRANCH   1  17
TORSDOF 9
ENDMDL
MODEL 10
REMARK VINA RESULT:    -3.829     13.634     16.204
REMARK INTER + INTRA:          -5.936
REMARK INTER:                  -5.620
REMARK INTRA:                  -0.315
REMARK UNBOUND:                -0.315
REMARK  Name = 8091
REMARK  9 active torsions:
REMARK  status: ('A' for Active; 'I' for Inactive)
REMARK    1  A    between atoms: O_1  and  C_10
REMARK    2  A    between atoms: O_1  and  C_11
REMARK    3  A    between atoms: C_3  and  C_4
REMARK    4  A    between atoms: C_3  and  C_5
REMARK    5  A    between atoms: C_4  and  C_6
REMARK    6  A    between atoms: C_5  and  C_7
REMARK    7  A    between atoms: C_6  and  C_8
REMARK    8  A    between atoms: C_7  and  C_9
REMARK    9  A    between atoms: C_8  and  C_10
REMARK                            x       y       z     vdW  Elec       q    Type
REMARK                         _______ _______ _______ _____ _____    ______ ____
ROOT
ATOM      1  C   UNL     1       6.402 -12.407  -0.549  0.00  0.00    +0.000 C 
ATOM      2  H   UNL     1       6.789 -12.199   0.456  0.00  0.00    +0.000 HD
ATOM      3  H   UNL     1       6.507 -11.485  -1.134  0.00  0.00    +0.000 HD
ENDROOT
BRANCH   1   4
ATOM      4  C   UNL     1       7.224 -13.523  -1.197  0.00  0.00    +0.000 C 
ATOM      5  H   UNL     1       6.554 -14.223  -1.712  0.00  0.00    +0.000 HD
ATOM      6  H   UNL     1       7.889 -13.094  -1.956  0.00  0.00    +0.000 HD
BRANCH   4   7
ATOM      7  C   UNL     1       8.055 -14.277  -0.157  0.00  0.00    +0.000 C 
ATOM      8  H   UNL     1       8.991 -14.619  -0.612  0.00  0.00    +0.000 HD
ATOM      9  H   UNL     1       7.509 -15.170   0.171  0.00  0.00    +0.000 HD
BRANCH   7  10
ATOM     10  C   UNL     1       8.364 -13.395   1.053  0.00  0.00    +0.000 C 
ATOM     11  H   UNL     1       7.462 -12.851   1.358  0.00  0.00    +0.000 HD
ATOM     12  H   UNL     1       9.119 -12.646   0.784  0.00  0.00    +0.000 HD
BRANCH  10  13
ATOM     13  C   UNL     1       8.870 -14.217   2.227  0.00  0.00    +0.000 C 
ATOM     14  H   UNL     1       9.600 -13.653   2.815  0.00  0.00    +0.000 HD
ATOM     15  H   UNL     1       9.346 -15.141   1.882  0.00  0.00    +0.000 HD
ATOM     16  H   UNL     1       8.039 -14.489   2.886  0.00  0.00    +0.000 HD
ENDBRANCH  10  13
ENDBRANCH   7  10
ENDBRANCH   4   7
ENDBRANCH   1   4
BRANCH   1  17
ATOM     17  C   UNL     1       4.920 -12.788  -0.460  0.00  0.00    +0.000 C 
ATOM     18  H   UNL     1       4.689 -13.550  -1.214  0.00  0.00    +0.000 HD
ATOM     19  H   UNL     1       4.722 -13.246   0.517  0.00  0.00    +0.000 HD
BRANCH  17  20
ATOM     20  C   UNL     1       3.996 -11.587  -0.657  0.00  0.00    +0.000 C 
ATOM     21  H   UNL     1       4.600 -10.688  -0.827  0.00  0.00    +0.000 HD
ATOM     22  H   UNL     1       3.360 -11.755  -1.534  0.00  0.00    +0.000 HD
BRANCH  20  24
ATOM     23  O   UNL     1       2.030 -10.726   0.489  0.00  0.00    +0.000 OA
ATOM     24  C   UNL     1       3.098 -11.324   0.531  0.00  0.00    +0.000 C 
BRANCH  24  25
ATOM     25  O   UNL     1       3.655 -11.889   1.642  0.00  0.00    +0.000 OA
BRANCH  25  26
ATOM     26  C   UNL     1       2.754 -12.136   2.726  0.00  0.00    +0.000 C 
ATOM     27  H   UNL     1       1.739 -12.178   2.321  0.00  0.00    +0.000 HD
ATOM     28  H   UNL     1       2.807 -11.322   3.456  0.00  0.00    +0.000 HD
ATOM     29  H   UNL     1       2.984 -13.095   3.199  0.00  0.00    +0.000 HD
ENDBRANCH  25  26
ENDBRANCH  24  25
ENDBRANCH  20  24
ENDBRANCH  17  20
ENDBRANCH   1  17
TORSDOF 9
ENDMDL
