MODEL 1
REMARK VINA RESULT:    -4.118      0.000      0.000
REMARK INTER + INTRA:          -6.980
REMARK INTER:                  -6.454
REMARK INTRA:                  -0.526
REMARK UNBOUND:                -0.695
REMARK  Name = 15606
REMARK  10 active torsions:
REMARK  status: ('A' for Active; 'I' for Inactive)
REMARK    1  A    between atoms: O_1  and  C_11
REMARK    2  A    between atoms: O_1  and  C_12
REMARK    3  A    between atoms: C_3  and  C_4
REMARK    4  A    between atoms: C_3  and  C_5
REMARK    5  A    between atoms: C_4  and  C_6
REMARK    6  A    between atoms: C_5  and  C_7
REMARK    7  A    between atoms: C_6  and  C_8
REMARK    8  A    between atoms: C_7  and  C_9
REMARK    9  A    between atoms: C_8  and  C_10
REMARK   10  A    between atoms: C_9  and  C_11
REMARK                            x       y       z     vdW  Elec       q    Type
REMARK                         _______ _______ _______ _____ _____    ______ ____
ROOT
ATOM      1  C   UNL     1       8.294 -12.509   0.206  0.00  0.00    +0.000 C 
ATOM      2  H   UNL     1       8.013 -12.941   1.173  0.00  0.00    +0.000 HD
ATOM      3  H   UNL     1       9.369 -12.686   0.080  0.00  0.00    +0.000 HD
ENDROOT
BRANCH   1   4
ATOM      4  C   UNL     1       8.040 -10.999   0.242  0.00  0.00    +0.000 C 
ATOM      5  H   UNL     1       6.959 -10.815   0.272  0.00  0.00    +0.000 HD
ATOM      6  H   UNL     1       8.455 -10.593   1.173  0.00  0.00    +0.000 HD
BRANCH   4   7
ATOM      7  C   UNL     1       8.644 -10.251  -0.950  0.00  0.00    +0.000 C 
ATOM      8  H   UNL     1       8.199  -9.250  -1.019  0.00  0.00    +0.000 HD
ATOM      9  H   UNL     1       8.393 -10.781  -1.876  0.00  0.00    +0.000 HD
BRANCH   7  10
ATOM     10  C   UNL     1      10.163 -10.136  -0.820  0.00  0.00    +0.000 C 
ATOM     11  H   UNL     1      10.650 -10.892  -1.447  0.00  0.00    +0.000 HD
ATOM     12  H   UNL     1      10.464 -10.331   0.216  0.00  0.00    +0.000 HD
BRANCH  10  13
ATOM     13  C   UNL     1      10.654  -8.758  -1.233  0.00  0.00    +0.000 C 
ATOM     14  H   UNL     1      11.387  -8.830  -2.044  0.00  0.00    +0.000 HD
ATOM     15  H   UNL     1      11.124  -8.239  -0.391  0.00  0.00    +0.000 HD
ATOM     16  H   UNL     1       9.818  -8.146  -1.585  0.00  0.00    +0.000 HD
ENDBRANCH  10  13
ENDBRANCH   7  10
ENDBRANCH   4   7
ENDBRANCH   1   4
BRANCH   1  17
ATOM     17  C   UNL     1       7.531 -13.227  -0.910  0.00  0.00    +0.000 C 
ATOM     18  H   UNL     1       7.389 -12.547  -1.758  0.00  0.00    +0.000 HD
ATOM     19  H   UNL     1       8.122 -14.077  -1.270  0.00  0.00    +0.000 HD
BRANCH  17  20
ATOM     20  C   UNL     1       6.168 -13.723  -0.415  0.00  0.00    +0.000 C 
ATOM     21  H   UNL     1       6.099 -13.577   0.671  0.00  0.00    +0.000 HD
ATOM     22  H   UNL     1       6.088 -14.804  -0.590  0.00  0.00    +0.000 HD
BRANCH  20  23
ATOM     23  C   UNL     1       5.004 -13.012  -1.100  0.00  0.00    +0.000 C 
ATOM     24  H   UNL     1       5.370 -12.461  -1.974  0.00  0.00    +0.000 HD
ATOM     25  H   UNL     1       4.267 -13.752  -1.430  0.00  0.00    +0.000 HD
BRANCH  23  27
ATOM     26  O   UNL     1       3.452 -11.241  -0.565  0.00  0.00    +0.000 OA
ATOM     27  C   UNL     1       4.307 -12.032  -0.187  0.00  0.00    +0.000 C 
BRANCH  27  28
ATOM     28  O   UNL     1       4.774 -12.168   1.087  0.00  0.00    +0.000 OA
BRANCH  28  29
ATOM     29  C   UNL     1       3.770 -12.292   2.099  0.00  0.00    +0.000 C 
ATOM     30  H   UNL     1       2.995 -11.533   1.959  0.00  0.00    +0.000 HD
ATOM     31  H   UNL     1       4.246 -12.134   3.071  0.00  0.00    +0.000 HD
ATOM     32  H   UNL     1       3.335 -13.297   2.081  0.00  0.00    +0.000 HD
ENDBRANCH  28  29
ENDBRANCH  27  28
ENDBRANCH  23  27
ENDBRANCH  20  23
ENDBRANCH  17  20
ENDBRANCH   1  17
TORSDOF 10
ENDMDL
MODEL 2
REMARK VINA RESULT:    -4.108      1.289      2.127
REMARK INTER + INTRA:          -6.964
REMARK INTER:                  -6.708
REMARK INTRA:                  -0.256
REMARK UNBOUND:                -0.695
REMARK  Name = 15606
REMARK  10 active torsions:
REMARK  status: ('A' for Active; 'I' for Inactive)
REMARK    1  A    between atoms: O_1  and  C_11
REMARK    2  A    between atoms: O_1  and  C_12
REMARK    3  A    between atoms: C_3  and  C_4
REMARK    4  A    between atoms: C_3  and  C_5
REMARK    5  A    between atoms: C_4  and  C_6
REMARK    6  A    between atoms: C_5  and  C_7
REMARK    7  A    between atoms: C_6  and  C_8
REMARK    8  A    between atoms: C_7  and  C_9
REMARK    9  A    between atoms: C_8  and  C_10
REMARK   10  A    between atoms: C_9  and  C_11
REMARK                            x       y       z     vdW  Elec       q    Type
REMARK                         _______ _______ _______ _____ _____    ______ ____
ROOT
ATOM      1  C   UNL     1       8.879 -10.583  -0.896  0.00  0.00    +0.000 C 
ATOM      2  H   UNL     1       9.635 -11.321  -0.603  0.00  0.00    +0.000 HD
ATOM      3  H   UNL     1       8.728 -10.697  -1.977  0.00  0.00    +0.000 HD
ENDROOT
BRANCH   1   4
ATOM      4  C   UNL     1       9.419  -9.177  -0.616  0.00  0.00    +0.000 C 
ATOM      5  H   UNL     1       8.648  -8.438  -0.868  0.00  0.00    +0.000 HD
ATOM      6  H   UNL     1       9.610  -9.080   0.459  0.00  0.00    +0.000 HD
BRANCH   4   7
ATOM      7  C   UNL     1      10.699  -8.851  -1.390  0.00  0.00    +0.000 C 
ATOM      8  H   UNL     1      11.472  -8.507  -0.691  0.00  0.00    +0.000 HD
ATOM      9  H   UNL     1      10.503  -8.027  -2.086  0.00  0.00    +0.000 HD
BRANCH   7  10
ATOM     10  C   UNL     1      11.203 -10.068  -2.166  0.00  0.00    +0.000 C 
ATOM     11  H   UNL     1      10.447 -10.387  -2.893  0.00  0.00    +0.000 HD
ATOM     12  H   UNL     1      11.366 -10.906  -1.479  0.00  0.00    +0.000 HD
BRANCH  10  13
ATOM     13  C   UNL     1      12.498  -9.762  -2.901  0.00  0.00    +0.000 C 
ATOM     14  H   UNL     1      12.999 -10.685  -3.213  0.00  0.00    +0.000 HD
ATOM     15  H   UNL     1      13.186  -9.195  -2.265  0.00  0.00    +0.000 HD
ATOM     16  H   UNL     1      12.295  -9.167  -3.796  0.00  0.00    +0.000 HD
ENDBRANCH  10  13
ENDBRANCH   7  10
ENDBRANCH   4   7
ENDBRANCH   1   4
BRANCH   1  17
ATOM     17  C   UNL     1       7.567 -10.886  -0.169  0.00  0.00    +0.000 C 
ATOM     18  H   UNL     1       7.731 -10.863   0.914  0.00  0.00    +0.000 HD
ATOM     19  H   UNL     1       6.831 -10.108  -0.403  0.00  0.00    +0.000 HD
BRANCH  17  20
ATOM     20  C   UNL     1       7.013 -12.256  -0.578  0.00  0.00    +0.000 C 
ATOM     21  H   UNL     1       7.436 -13.030   0.076  0.00  0.00    +0.000 HD
ATOM     22  H   UNL     1       7.344 -12.494  -1.597  0.00  0.00    +0.000 HD
BRANCH  20  23
ATOM     23  C   UNL     1       5.489 -12.311  -0.514  0.00  0.00    +0.000 C 
ATOM     24  H   UNL     1       5.067 -11.417  -0.988  0.00  0.00    +0.000 HD
ATOM     25  H   UNL     1       5.133 -13.198  -1.049  0.00  0.00    +0.000 HD
BRANCH  23  27
ATOM     26  O   UNL     1       5.586 -12.899   1.825  0.00  0.00    +0.000 OA
ATOM     27  C   UNL     1       4.972 -12.380   0.902  0.00  0.00    +0.000 C 
BRANCH  27  28
ATOM     28  O   UNL     1       3.745 -11.789   0.980  0.00  0.00    +0.000 OA
BRANCH  28  29
ATOM     29  C   UNL     1       3.078 -11.923   2.239  0.00  0.00    +0.000 C 
ATOM     30  H   UNL     1       3.722 -11.568   3.049  0.00  0.00    +0.000 HD
ATOM     31  H   UNL     1       2.863 -12.983   2.400  0.00  0.00    +0.000 HD
ATOM     32  H   UNL     1       2.131 -11.372   2.228  0.00  0.00    +0.000 HD
ENDBRANCH  28  29
ENDBRANCH  27  28
ENDBRANCH  23  27
ENDBRANCH  20  23
ENDBRANCH  17  20
ENDBRANCH   1  17
TORSDOF 10
ENDMDL
MODEL 3
REMARK VINA RESULT:    -4.056      3.779      5.869
REMARK INTER + INTRA:          -6.885
REMARK INTER:                  -6.497
REMARK INTRA:                  -0.389
REMARK UNBOUND:                -0.695
REMARK  Name = 15606
REMARK  10 active torsions:
REMARK  status: ('A' for Active; 'I' for Inactive)
REMARK    1  A    between atoms: O_1  and  C_11
REMARK    2  A    between atoms: O_1  and  C_12
REMARK    3  A    between atoms: C_3  and  C_4
REMARK    4  A    between atoms: C_3  and  C_5
REMARK    5  A    between atoms: C_4  and  C_6
REMARK    6  A    between atoms: C_5  and  C_7
REMARK    7  A    between atoms: C_6  and  C_8
REMARK    8  A    between atoms: C_7  and  C_9
REMARK    9  A    between atoms: C_8  and  C_10
REMARK   10  A    between atoms: C_9  and  C_11
REMARK                            x       y       z     vdW  Elec       q    Type
REMARK                         _______ _______ _______ _____ _____    ______ ____
ROOT
ATOM      1  C   UNL     1      12.998  -9.720  -2.941  0.00  0.00    +0.000 C 
ATOM      2  H   UNL     1      13.100  -8.629  -2.990  0.00  0.00    +0.000 HD
ATOM      3  H   UNL     1      13.663 -10.064  -2.139  0.00  0.00    +0.000 HD
ENDROOT
BRANCH   1   4
ATOM      4  C   UNL     1      13.467 -10.325  -4.268  0.00  0.00    +0.000 C 
ATOM      5  H   UNL     1      14.450  -9.911  -4.526  0.00  0.00    +0.000 HD
ATOM      6  H   UNL     1      13.606 -11.405  -4.134  0.00  0.00    +0.000 HD
BRANCH   4   7
ATOM      7  C   UNL     1      12.498 -10.079  -5.427  0.00  0.00    +0.000 C 
ATOM      8  H   UNL     1      11.467 -10.085  -5.051  0.00  0.00    +0.000 HD
ATOM      9  H   UNL     1      12.583 -10.897  -6.151  0.00  0.00    +0.000 HD
BRANCH   7  10
ATOM     10  C   UNL     1      12.791  -8.748  -6.120  0.00  0.00    +0.000 C 
ATOM     11  H   UNL     1      12.304  -7.929  -5.578  0.00  0.00    +0.000 HD
ATOM     12  H   UNL     1      12.376  -8.757  -7.134  0.00  0.00    +0.000 HD
BRANCH  10  13
ATOM     13  C   UNL     1      14.284  -8.475  -6.191  0.00  0.00    +0.000 C 
ATOM     14  H   UNL     1      14.832  -9.369  -6.508  0.00  0.00    +0.000 HD
ATOM     15  H   UNL     1      14.674  -8.160  -5.217  0.00  0.00    +0.000 HD
ATOM     16  H   UNL     1      14.490  -7.678  -6.912  0.00  0.00    +0.000 HD
ENDBRANCH  10  13
ENDBRANCH   7  10
ENDBRANCH   4   7
ENDBRANCH   1   4
BRANCH   1  17
ATOM     17  C   UNL     1      11.553 -10.077  -2.587  0.00  0.00    +0.000 C 
ATOM     18  H   UNL     1      10.916  -9.957  -3.471  0.00  0.00    +0.000 HD
ATOM     19  H   UNL     1      11.499 -11.131  -2.288  0.00  0.00    +0.000 HD
BRANCH  17  20
ATOM     20  C   UNL     1      11.028  -9.194  -1.450  0.00  0.00    +0.000 C 
ATOM     21  H   UNL     1      10.504  -8.327  -1.874  0.00  0.00    +0.000 HD
ATOM     22  H   UNL     1      11.876  -8.795  -0.877  0.00  0.00    +0.000 HD
BRANCH  20  23
ATOM     23  C   UNL     1      10.091  -9.948  -0.510  0.00  0.00    +0.000 C 
ATOM     24  H   UNL     1      10.060 -11.006  -0.792  0.00  0.00    +0.000 HD
ATOM     25  H   UNL     1      10.460  -9.864   0.518  0.00  0.00    +0.000 HD
BRANCH  23  27
ATOM     26  O   UNL     1       8.407  -8.218  -0.508  0.00  0.00    +0.000 OA
ATOM     27  C   UNL     1       8.681  -9.411  -0.546  0.00  0.00    +0.000 C 
BRANCH  27  28
ATOM     28  O   UNL     1       7.791 -10.441  -0.624  0.00  0.00    +0.000 OA
BRANCH  28  29
ATOM     29  C   UNL     1       8.367 -11.750  -0.657  0.00  0.00    +0.000 C 
ATOM     30  H   UNL     1       8.652 -12.064   0.351  0.00  0.00    +0.000 HD
ATOM     31  H   UNL     1       9.264 -11.712  -1.281  0.00  0.00    +0.000 HD
ATOM     32  H   UNL     1       7.663 -12.464  -1.099  0.00  0.00    +0.000 HD
ENDBRANCH  28  29
ENDBRANCH  27  28
ENDBRANCH  23  27
ENDBRANCH  20  23
ENDBRANCH  17  20
ENDBRANCH   1  17
TORSDOF 10
ENDMDL
MODEL 4
REMARK VINA RESULT:    -3.995     13.579     15.020
REMARK INTER + INTRA:          -6.792
REMARK INTER:                  -6.121
REMARK INTRA:                  -0.671
REMARK UNBOUND:                -0.695
REMARK  Name = 15606
REMARK  10 active torsions:
REMARK  status: ('A' for Active; 'I' for Inactive)
REMARK    1  A    between atoms: O_1  and  C_11
REMARK    2  A    between atoms: O_1  and  C_12
REMARK    3  A    between atoms: C_3  and  C_4
REMARK    4  A    between atoms: C_3  and  C_5
REMARK    5  A    between atoms: C_4  and  C_6
REMARK    6  A    between atoms: C_5  and  C_7
REMARK    7  A    between atoms: C_6  and  C_8
REMARK    8  A    between atoms: C_7  and  C_9
REMARK    9  A    between atoms: C_8  and  C_10
REMARK   10  A    between atoms: C_9  and  C_11
REMARK                            x       y       z     vdW  Elec       q    Type
REMARK                         _______ _______ _______ _____ _____    ______ ____
ROOT
ATOM      1  C   UNL     1      -3.084  -8.005  -9.713  0.00  0.00    +0.000 C 
ATOM      2  H   UNL     1      -3.112  -8.107  -8.622  0.00  0.00    +0.000 HD
ATOM      3  H   UNL     1      -2.033  -7.856  -9.990  0.00  0.00    +0.000 HD
ENDROOT
BRANCH   1   4
ATOM      4  C   UNL     1      -3.885  -6.765 -10.120  0.00  0.00    +0.000 C 
ATOM      5  H   UNL     1      -3.191  -5.946 -10.346  0.00  0.00    +0.000 HD
ATOM      6  H   UNL     1      -4.428  -6.984 -11.047  0.00  0.00    +0.000 HD
BRANCH   4   7
ATOM      7  C   UNL     1      -4.876  -6.302  -9.050  0.00  0.00    +0.000 C 
ATOM      8  H   UNL     1      -4.630  -5.279  -8.739  0.00  0.00    +0.000 HD
ATOM      9  H   UNL     1      -4.780  -6.941  -8.164  0.00  0.00    +0.000 HD
BRANCH   7  10
ATOM     10  C   UNL     1      -6.315  -6.357  -9.566  0.00  0.00    +0.000 C 
ATOM     11  H   UNL     1      -6.554  -7.374  -9.899  0.00  0.00    +0.000 HD
ATOM     12  H   UNL     1      -6.423  -5.698 -10.435  0.00  0.00    +0.000 HD
BRANCH  10  13
ATOM     13  C   UNL     1      -7.308  -5.940  -8.493  0.00  0.00    +0.000 C 
ATOM     14  H   UNL     1      -7.643  -4.910  -8.648  0.00  0.00    +0.000 HD
ATOM     15  H   UNL     1      -6.861  -6.011  -7.496  0.00  0.00    +0.000 HD
ATOM     16  H   UNL     1      -8.187  -6.591  -8.517  0.00  0.00    +0.000 HD
ENDBRANCH  10  13
ENDBRANCH   7  10
ENDBRANCH   4   7
ENDBRANCH   1   4
BRANCH   1  17
ATOM     17  C   UNL     1      -3.595  -9.297 -10.355  0.00  0.00    +0.000 C 
ATOM     18  H   UNL     1      -4.428  -9.069 -11.031  0.00  0.00    +0.000 HD
ATOM     19  H   UNL     1      -2.799  -9.746 -10.961  0.00  0.00    +0.000 HD
BRANCH  17  20
ATOM     20  C   UNL     1      -4.055 -10.298  -9.290  0.00  0.00    +0.000 C 
ATOM     21  H   UNL     1      -3.448 -11.210  -9.362  0.00  0.00    +0.000 HD
ATOM     22  H   UNL     1      -5.091 -10.598  -9.494  0.00  0.00    +0.000 HD
BRANCH  20  23
ATOM     23  C   UNL     1      -3.960  -9.731  -7.876  0.00  0.00    +0.000 C 
ATOM     24  H   UNL     1      -3.377 -10.411  -7.245  0.00  0.00    +0.000 HD
ATOM     25  H   UNL     1      -3.459  -8.757  -7.907  0.00  0.00    +0.000 HD
BRANCH  23  27
ATOM     26  O   UNL     1      -6.357  -9.446  -7.871  0.00  0.00    +0.000 OA
ATOM     27  C   UNL     1      -5.314  -9.542  -7.237  0.00  0.00    +0.000 C 
BRANCH  27  28
ATOM     28  O   UNL     1      -5.187  -9.493  -5.880  0.00  0.00    +0.000 OA
BRANCH  28  29
ATOM     29  C   UNL     1      -6.222  -8.784  -5.191  0.00  0.00    +0.000 C 
ATOM     30  H   UNL     1      -6.539  -7.915  -5.774  0.00  0.00    +0.000 HD
ATOM     31  H   UNL     1      -5.820  -8.439  -4.235  0.00  0.00    +0.000 HD
ATOM     32  H   UNL     1      -7.071  -9.448  -4.995  0.00  0.00    +0.000 HD
ENDBRANCH  28  29
ENDBRANCH  27  28
ENDBRANCH  23  27
ENDBRANCH  20  23
ENDBRANCH  17  20
ENDBRANCH   1  17
TORSDOF 10
ENDMDL
MODEL 5
REMARK VINA RESULT:    -3.994      2.651      4.347
REMARK INTER + INTRA:          -6.791
REMARK INTER:                  -6.555
REMARK INTRA:                  -0.236
REMARK UNBOUND:                -0.695
REMARK  Name = 15606
REMARK  10 active torsions:
REMARK  status: ('A' for Active; 'I' for Inactive)
REMARK    1  A    between atoms: O_1  and  C_11
REMARK    2  A    between atoms: O_1  and  C_12
REMARK    3  A    between atoms: C_3  and  C_4
REMARK    4  A    between atoms: C_3  and  C_5
REMARK    5  A    between atoms: C_4  and  C_6
REMARK    6  A    between atoms: C_5  and  C_7
REMARK    7  A    between atoms: C_6  and  C_8
REMARK    8  A    between atoms: C_7  and  C_9
REMARK    9  A    between atoms: C_8  and  C_10
REMARK   10  A    between atoms: C_9  and  C_11
REMARK                            x       y       z     vdW  Elec       q    Type
REMARK                         _______ _______ _______ _____ _____    ______ ____
ROOT
ATOM      1  C   UNL     1      11.074  -8.997  -1.792  0.00  0.00    +0.000 C 
ATOM      2  H   UNL     1      10.467  -8.376  -2.461  0.00  0.00    +0.000 HD
ATOM      3  H   UNL     1      11.898  -8.366  -1.436  0.00  0.00    +0.000 HD
ENDROOT
BRANCH   1   4
ATOM      4  C   UNL     1      11.655 -10.169  -2.589  0.00  0.00    +0.000 C 
ATOM      5  H   UNL     1      11.656 -11.068  -1.960  0.00  0.00    +0.000 HD
ATOM      6  H   UNL     1      10.996 -10.380  -3.439  0.00  0.00    +0.000 HD
BRANCH   4   7
ATOM      7  C   UNL     1      13.075  -9.914  -3.100  0.00  0.00    +0.000 C 
ATOM      8  H   UNL     1      13.673 -10.827  -2.996  0.00  0.00    +0.000 HD
ATOM      9  H   UNL     1      13.551  -9.143  -2.482  0.00  0.00    +0.000 HD
BRANCH   7  10
ATOM     10  C   UNL     1      13.065  -9.464  -4.562  0.00  0.00    +0.000 C 
ATOM     11  H   UNL     1      12.440  -8.570  -4.673  0.00  0.00    +0.000 HD
ATOM     12  H   UNL     1      12.625 -10.247  -5.189  0.00  0.00    +0.000 HD
BRANCH  10  13
ATOM     13  C   UNL     1      14.468  -9.152  -5.058  0.00  0.00    +0.000 C 
ATOM     14  H   UNL     1      15.091  -8.756  -4.249  0.00  0.00    +0.000 HD
ATOM     15  H   UNL     1      14.444  -8.414  -5.867  0.00  0.00    +0.000 HD
ATOM     16  H   UNL     1      14.945 -10.059  -5.442  0.00  0.00    +0.000 HD
ENDBRANCH  10  13
ENDBRANCH   7  10
ENDBRANCH   4   7
ENDBRANCH   1   4
BRANCH   1  17
ATOM     17  C   UNL     1      10.223  -9.436  -0.599  0.00  0.00    +0.000 C 
ATOM     18  H   UNL     1      10.863  -9.576   0.280  0.00  0.00    +0.000 HD
ATOM     19  H   UNL     1       9.502  -8.647  -0.353  0.00  0.00    +0.000 HD
BRANCH  17  20
ATOM     20  C   UNL     1       9.475 -10.738  -0.904  0.00  0.00    +0.000 C 
ATOM     21  H   UNL     1       9.943 -11.565  -0.353  0.00  0.00    +0.000 HD
ATOM     22  H   UNL     1       9.577 -10.977  -1.970  0.00  0.00    +0.000 HD
BRANCH  20  23
ATOM     23  C   UNL     1       7.994 -10.659  -0.542  0.00  0.00    +0.000 C 
ATOM     24  H   UNL     1       7.882 -10.234   0.462  0.00  0.00    +0.000 HD
ATOM     25  H   UNL     1       7.477 -10.014  -1.261  0.00  0.00    +0.000 HD
BRANCH  23  27
ATOM     26  O   UNL     1       7.929 -13.070  -0.640  0.00  0.00    +0.000 OA
ATOM     27  C   UNL     1       7.321 -12.010  -0.556  0.00  0.00    +0.000 C 
BRANCH  27  28
ATOM     28  O   UNL     1       5.969 -11.860  -0.467  0.00  0.00    +0.000 OA
BRANCH  28  29
ATOM     29  C   UNL     1       5.197 -13.002  -0.850  0.00  0.00    +0.000 C 
ATOM     30  H   UNL     1       4.796 -13.503   0.035  0.00  0.00    +0.000 HD
ATOM     31  H   UNL     1       5.856 -13.697  -1.379  0.00  0.00    +0.000 HD
ATOM     32  H   UNL     1       4.388 -12.704  -1.526  0.00  0.00    +0.000 HD
ENDBRANCH  28  29
ENDBRANCH  27  28
ENDBRANCH  23  27
ENDBRANCH  20  23
ENDBRANCH  17  20
ENDBRANCH   1  17
TORSDOF 10
ENDMDL
MODEL 6
REMARK VINA RESULT:    -3.930      4.380      7.131
REMARK INTER + INTRA:          -6.693
REMARK INTER:                  -6.336
REMARK INTRA:                  -0.358
REMARK UNBOUND:                -0.695
REMARK  Name = 15606
REMARK  10 active torsions:
REMARK  status: ('A' for Active; 'I' for Inactive)
REMARK    1  A    between atoms: O_1  and  C_11
REMARK    2  A    between atoms: O_1  and  C_12
REMARK    3  A    between atoms: C_3  and  C_4
REMARK    4  A    between atoms: C_3  and  C_5
REMARK    5  A    between atoms: C_4  and  C_6
REMARK    6  A    between atoms: C_5  and  C_7
REMARK    7  A    between atoms: C_6  and  C_8
REMARK    8  A    between atoms: C_7  and  C_9
REMARK    9  A    between atoms: C_8  and  C_10
REMARK   10  A    between atoms: C_9  and  C_11
REMARK                            x       y       z     vdW  Elec       q    Type
REMARK                         _______ _______ _______ _____ _____    ______ ____
ROOT
ATOM      1  C   UNL     1       8.732  -9.962  -0.640  0.00  0.00    +0.000 C 
ATOM      2  H   UNL     1       8.879  -9.318   0.235  0.00  0.00    +0.000 HD
ATOM      3  H   UNL     1       8.241  -9.348  -1.406  0.00  0.00    +0.000 HD
ENDROOT
BRANCH   1   4
ATOM      4  C   UNL     1       7.802 -11.117  -0.259  0.00  0.00    +0.000 C 
ATOM      5  H   UNL     1       7.648 -11.113   0.828  0.00  0.00    +0.000 HD
ATOM      6  H   UNL     1       6.820 -10.946  -0.716  0.00  0.00    +0.000 HD
BRANCH   4   7
ATOM      7  C   UNL     1       8.328 -12.490  -0.686  0.00  0.00    +0.000 C 
ATOM      8  H   UNL     1       8.958 -12.905   0.110  0.00  0.00    +0.000 HD
ATOM      9  H   UNL     1       8.960 -12.376  -1.574  0.00  0.00    +0.000 HD
BRANCH   7  10
ATOM     10  C   UNL     1       7.179 -13.451  -0.994  0.00  0.00    +0.000 C 
ATOM     11  H   UNL     1       7.308 -14.381  -0.429  0.00  0.00    +0.000 HD
ATOM     12  H   UNL     1       7.189 -13.714  -2.058  0.00  0.00    +0.000 HD
BRANCH  10  13
ATOM     13  C   UNL     1       5.832 -12.840  -0.642  0.00  0.00    +0.000 C 
ATOM     14  H   UNL     1       5.955 -11.835  -0.226  0.00  0.00    +0.000 HD
ATOM     15  H   UNL     1       5.302 -13.455   0.094  0.00  0.00    +0.000 HD
ATOM     16  H   UNL     1       5.205 -12.764  -1.535  0.00  0.00    +0.000 HD
ENDBRANCH  10  13
ENDBRANCH   7  10
ENDBRANCH   4   7
ENDBRANCH   1   4
BRANCH   1  17
ATOM     17  C   UNL     1      10.094 -10.425  -1.162  0.00  0.00    +0.000 C 
ATOM     18  H   UNL     1      10.582 -11.058  -0.411  0.00  0.00    +0.000 HD
ATOM     19  H   UNL     1       9.953 -11.037  -2.061  0.00  0.00    +0.000 HD
BRANCH  17  20
ATOM     20  C   UNL     1      10.995  -9.230  -1.491  0.00  0.00    +0.000 C 
ATOM     21  H   UNL     1      11.867  -9.236  -0.825  0.00  0.00    +0.000 HD
ATOM     22  H   UNL     1      10.454  -8.297  -1.287  0.00  0.00    +0.000 HD
BRANCH  20  23
ATOM     23  C   UNL     1      11.463  -9.236  -2.945  0.00  0.00    +0.000 C 
ATOM     24  H   UNL     1      10.704  -9.712  -3.575  0.00  0.00    +0.000 HD
ATOM     25  H   UNL     1      11.612  -8.205  -3.284  0.00  0.00    +0.000 HD
BRANCH  23  27
ATOM     26  O   UNL     1      13.853  -9.541  -2.791  0.00  0.00    +0.000 OA
ATOM     27  C   UNL     1      12.762  -9.981  -3.131  0.00  0.00    +0.000 C 
BRANCH  27  28
ATOM     28  O   UNL     1      12.528 -11.187  -3.723  0.00  0.00    +0.000 OA
BRANCH  28  29
ATOM     29  C   UNL     1      13.675 -12.028  -3.881  0.00  0.00    +0.000 C 
ATOM     30  H   UNL     1      14.166 -12.184  -2.916  0.00  0.00    +0.000 HD
ATOM     31  H   UNL     1      14.375 -11.526  -4.554  0.00  0.00    +0.000 HD
ATOM     32  H   UNL     1      13.386 -12.985  -4.326  0.00  0.00    +0.000 HD
ENDBRANCH  28  29
ENDBRANCH  27  28
ENDBRANCH  23  27
ENDBRANCH  20  23
ENDBRANCH  17  20
ENDBRANCH   1  17
TORSDOF 10
ENDMDL
MODEL 7
REMARK VINA RESULT:    -3.903     15.041     19.168
REMARK INTER + INTRA:          -6.652
REMARK INTER:                  -6.455
REMARK INTRA:                  -0.197
REMARK UNBOUND:                -0.695
REMARK  Name = 15606
REMARK  10 active torsions:
REMARK  status: ('A' for Active; 'I' for Inactive)
REMARK    1  A    between atoms: O_1  and  C_11
REMARK    2  A    between atoms: O_1  and  C_12
REMARK    3  A    between atoms: C_3  and  C_4
REMARK    4  A    between atoms: C_3  and  C_5
REMARK    5  A    between atoms: C_4  and  C_6
REMARK    6  A    between atoms: C_5  and  C_7
REMARK    7  A    between atoms: C_6  and  C_8
REMARK    8  A    between atoms: C_7  and  C_9
REMARK    9  A    between atoms: C_8  and  C_10
REMARK   10  A    between atoms: C_9  and  C_11
REMARK                            x       y       z     vdW  Elec       q    Type
REMARK                         _______ _______ _______ _____ _____    ______ ____
ROOT
ATOM      1  C   UNL     1     -11.089 -14.921   7.180  0.00  0.00    +0.000 C 
ATOM      2  H   UNL     1     -11.101 -13.862   6.899  0.00  0.00    +0.000 HD
ATOM      3  H   UNL     1     -11.665 -15.458   6.416  0.00  0.00    +0.000 HD
ENDROOT
BRANCH   1   4
ATOM      4  C   UNL     1     -11.786 -15.087   8.534  0.00  0.00    +0.000 C 
ATOM      5  H   UNL     1     -11.222 -15.805   9.144  0.00  0.00    +0.000 HD
ATOM      6  H   UNL     1     -11.756 -14.129   9.066  0.00  0.00    +0.000 HD
BRANCH   4   7
ATOM      7  C   UNL     1     -13.238 -15.558   8.418  0.00  0.00    +0.000 C 
ATOM      8  H   UNL     1     -13.376 -16.471   9.009  0.00  0.00    +0.000 HD
ATOM      9  H   UNL     1     -13.456 -15.811   7.374  0.00  0.00    +0.000 HD
BRANCH   7  10
ATOM     10  C   UNL     1     -14.209 -14.478   8.897  0.00  0.00    +0.000 C 
ATOM     11  H   UNL     1     -15.239 -14.770   8.661  0.00  0.00    +0.000 HD
ATOM     12  H   UNL     1     -14.010 -13.538   8.370  0.00  0.00    +0.000 HD
BRANCH  10  13
ATOM     13  C   UNL     1     -14.091 -14.247  10.395  0.00  0.00    +0.000 C 
ATOM     14  H   UNL     1     -13.041 -14.220  10.706  0.00  0.00    +0.000 HD
ATOM     15  H   UNL     1     -14.596 -15.041  10.956  0.00  0.00    +0.000 HD
ATOM     16  H   UNL     1     -14.551 -13.293  10.669  0.00  0.00    +0.000 HD
ENDBRANCH  10  13
ENDBRANCH   7  10
ENDBRANCH   4   7
ENDBRANCH   1   4
BRANCH   1  17
ATOM     17  C   UNL     1      -9.646 -15.430   7.173  0.00  0.00    +0.000 C 
ATOM     18  H   UNL     1      -9.259 -15.458   8.198  0.00  0.00    +0.000 HD
ATOM     19  H   UNL     1      -9.621 -16.456   6.788  0.00  0.00    +0.000 HD
BRANCH  17  20
ATOM     20  C   UNL     1      -8.749 -14.536   6.309  0.00  0.00    +0.000 C 
ATOM     21  H   UNL     1      -9.363 -13.768   5.820  0.00  0.00    +0.000 HD
ATOM     22  H   UNL     1      -8.303 -15.135   5.505  0.00  0.00    +0.000 HD
BRANCH  20  23
ATOM     23  C   UNL     1      -7.641 -13.865   7.117  0.00  0.00    +0.000 C 
ATOM     24  H   UNL     1      -8.054 -13.020   7.679  0.00  0.00    +0.000 HD
ATOM     25  H   UNL     1      -7.216 -14.587   7.823  0.00  0.00    +0.000 HD
BRANCH  23  27
ATOM     26  O   UNL     1      -5.343 -13.627   6.418  0.00  0.00    +0.000 OA
ATOM     27  C   UNL     1      -6.523 -13.348   6.246  0.00  0.00    +0.000 C 
BRANCH  27  28
ATOM     28  O   UNL     1      -7.026 -12.542   5.269  0.00  0.00    +0.000 OA
BRANCH  28  29
ATOM     29  C   UNL     1      -6.529 -12.790   3.950  0.00  0.00    +0.000 C 
ATOM     30  H   UNL     1      -5.545 -12.329   3.823  0.00  0.00    +0.000 HD
ATOM     31  H   UNL     1      -7.223 -12.341   3.234  0.00  0.00    +0.000 HD
ATOM     32  H   UNL     1      -6.478 -13.867   3.760  0.00  0.00    +0.000 HD
ENDBRANCH  28  29
ENDBRANCH  27  28
ENDBRANCH  23  27
ENDBRANCH  20  23
ENDBRANCH  17  20
ENDBRANCH   1  17
TORSDOF 10
ENDMDL
MODEL 8
REMARK VINA RESULT:    -3.871     13.932     15.392
REMARK INTER + INTRA:          -6.604
REMARK INTER:                  -5.960
REMARK INTRA:                  -0.644
REMARK UNBOUND:                -0.695
REMARK  Name = 15606
REMARK  10 active torsions:
REMARK  status: ('A' for Active; 'I' for Inactive)
REMARK    1  A    between atoms: O_1  and  C_11
REMARK    2  A    between atoms: O_1  and  C_12
REMARK    3  A    between atoms: C_3  and  C_4
REMARK    4  A    between atoms: C_3  and  C_5
REMARK    5  A    between atoms: C_4  and  C_6
REMARK    6  A    between atoms: C_5  and  C_7
REMARK    7  A    between atoms: C_6  and  C_8
REMARK    8  A    between atoms: C_7  and  C_9
REMARK    9  A    between atoms: C_8  and  C_10
REMARK   10  A    between atoms: C_9  and  C_11
REMARK                            x       y       z     vdW  Elec       q    Type
REMARK                         _______ _______ _______ _____ _____    ______ ____
ROOT
ATOM      1  C   UNL     1      -5.115  -7.055 -10.287  0.00  0.00    +0.000 C 
ATOM      2  H   UNL     1      -5.340  -8.127 -10.249  0.00  0.00    +0.000 HD
ATOM      3  H   UNL     1      -4.997  -6.793 -11.346  0.00  0.00    +0.000 HD
ENDROOT
BRANCH   1   4
ATOM      4  C   UNL     1      -3.791  -6.796  -9.562  0.00  0.00    +0.000 C 
ATOM      5  H   UNL     1      -3.197  -6.077 -10.140  0.00  0.00    +0.000 HD
ATOM      6  H   UNL     1      -4.004  -6.324  -8.595  0.00  0.00    +0.000 HD
BRANCH   4   7
ATOM      7  C   UNL     1      -2.963  -8.063  -9.334  0.00  0.00    +0.000 C 
ATOM      8  H   UNL     1      -2.057  -7.814  -8.768  0.00  0.00    +0.000 HD
ATOM      9  H   UNL     1      -2.639  -8.464 -10.302  0.00  0.00    +0.000 HD
BRANCH   7  10
ATOM     10  C   UNL     1      -3.769  -9.124  -8.585  0.00  0.00    +0.000 C 
ATOM     11  H   UNL     1      -4.727  -8.704  -8.256  0.00  0.00    +0.000 HD
ATOM     12  H   UNL     1      -3.227  -9.437  -7.685  0.00  0.00    +0.000 HD
BRANCH  10  13
ATOM     13  C   UNL     1      -4.036 -10.340  -9.457  0.00  0.00    +0.000 C 
ATOM     14  H   UNL     1      -5.036 -10.745  -9.270  0.00  0.00    +0.000 HD
ATOM     15  H   UNL     1      -3.303 -11.131  -9.265  0.00  0.00    +0.000 HD
ATOM     16  H   UNL     1      -3.972 -10.069 -10.515  0.00  0.00    +0.000 HD
ENDBRANCH  10  13
ENDBRANCH   7  10
ENDBRANCH   4   7
ENDBRANCH   1   4
BRANCH   1  17
ATOM     17  C   UNL     1      -6.291  -6.270  -9.702  0.00  0.00    +0.000 C 
ATOM     18  H   UNL     1      -6.415  -5.328 -10.248  0.00  0.00    +0.000 HD
ATOM     19  H   UNL     1      -7.216  -6.846  -9.832  0.00  0.00    +0.000 HD
BRANCH  17  20
ATOM     20  C   UNL     1      -6.075  -5.978  -8.213  0.00  0.00    +0.000 C 
ATOM     21  H   UNL     1      -5.997  -4.893  -8.062  0.00  0.00    +0.000 HD
ATOM     22  H   UNL     1      -5.116  -6.407  -7.893  0.00  0.00    +0.000 HD
BRANCH  20  23
ATOM     23  C   UNL     1      -7.196  -6.536  -7.340  0.00  0.00    +0.000 C 
ATOM     24  H   UNL     1      -7.332  -5.895  -6.461  0.00  0.00    +0.000 HD
ATOM     25  H   UNL     1      -8.129  -6.555  -7.913  0.00  0.00    +0.000 HD
BRANCH  23  27
ATOM     26  O   UNL     1      -7.118  -8.940  -7.531  0.00  0.00    +0.000 OA
ATOM     27  C   UNL     1      -6.912  -7.938  -6.859  0.00  0.00    +0.000 C 
BRANCH  27  28
ATOM     28  O   UNL     1      -6.406  -7.904  -5.594  0.00  0.00    +0.000 OA
BRANCH  28  29
ATOM     29  C   UNL     1      -6.304  -9.173  -4.939  0.00  0.00    +0.000 C 
ATOM     30  H   UNL     1      -6.456  -9.983  -5.657  0.00  0.00    +0.000 HD
ATOM     31  H   UNL     1      -7.086  -9.227  -4.177  0.00  0.00    +0.000 HD
ATOM     32  H   UNL     1      -5.329  -9.269  -4.448  0.00  0.00    +0.000 HD
ENDBRANCH  28  29
ENDBRANCH  27  28
ENDBRANCH  23  27
ENDBRANCH  20  23
ENDBRANCH  17  20
ENDBRANCH   1  17
TORSDOF 10
ENDMDL
MODEL 9
REMARK VINA RESULT:    -3.720      6.012      8.558
REMARK INTER + INTRA:          -6.372
REMARK INTER:                  -5.891
REMARK INTRA:                  -0.481
REMARK UNBOUND:                -0.695
REMARK  Name = 15606
REMARK  10 active torsions:
REMARK  status: ('A' for Active; 'I' for Inactive)
REMARK    1  A    between atoms: O_1  and  C_11
REMARK    2  A    between atoms: O_1  and  C_12
REMARK    3  A    between atoms: C_3  and  C_4
REMARK    4  A    between atoms: C_3  and  C_5
REMARK    5  A    between atoms: C_4  and  C_6
REMARK    6  A    between atoms: C_5  and  C_7
REMARK    7  A    between atoms: C_6  and  C_8
REMARK    8  A    between atoms: C_7  and  C_9
REMARK    9  A    between atoms: C_8  and  C_10
REMARK   10  A    between atoms: C_9  and  C_11
REMARK                            x       y       z     vdW  Elec       q    Type
REMARK                         _______ _______ _______ _____ _____    ______ ____
ROOT
ATOM      1  C   UNL     1      11.623 -10.034  -3.168  0.00  0.00    +0.000 C 
ATOM      2  H   UNL     1      12.225  -9.120  -3.232  0.00  0.00    +0.000 HD
ATOM      3  H   UNL     1      10.859  -9.966  -3.952  0.00  0.00    +0.000 HD
ENDROOT
BRANCH   1   4
ATOM      4  C   UNL     1      10.930 -10.079  -1.803  0.00  0.00    +0.000 C 
ATOM      5  H   UNL     1      10.000 -10.656  -1.889  0.00  0.00    +0.000 HD
ATOM      6  H   UNL     1      11.572 -10.620  -1.098  0.00  0.00    +0.000 HD
BRANCH   4   7
ATOM      7  C   UNL     1      10.609  -8.694  -1.236  0.00  0.00    +0.000 C 
ATOM      8  H   UNL     1      10.712  -7.941  -2.026  0.00  0.00    +0.000 HD
ATOM      9  H   UNL     1      11.336  -8.445  -0.454  0.00  0.00    +0.000 HD
BRANCH   7  10
ATOM     10  C   UNL     1       9.196  -8.648  -0.654  0.00  0.00    +0.000 C 
ATOM     11  H   UNL     1       8.578  -7.948  -1.229  0.00  0.00    +0.000 HD
ATOM     12  H   UNL     1       9.229  -8.279   0.377  0.00  0.00    +0.000 HD
BRANCH  10  13
ATOM     13  C   UNL     1       8.540 -10.019  -0.675  0.00  0.00    +0.000 C 
ATOM     14  H   UNL     1       9.293 -10.813  -0.694  0.00  0.00    +0.000 HD
ATOM     15  H   UNL     1       7.897 -10.134  -1.554  0.00  0.00    +0.000 HD
ATOM     16  H   UNL     1       7.922 -10.158   0.217  0.00  0.00    +0.000 HD
ENDBRANCH  10  13
ENDBRANCH   7  10
ENDBRANCH   4   7
ENDBRANCH   1   4
BRANCH   1  17
ATOM     17  C   UNL     1      12.516 -11.248  -3.436  0.00  0.00    +0.000 C 
ATOM     18  H   UNL     1      12.669 -11.807  -2.506  0.00  0.00    +0.000 HD
ATOM     19  H   UNL     1      12.014 -11.922  -4.142  0.00  0.00    +0.000 HD
BRANCH  17  20
ATOM     20  C   UNL     1      13.871 -10.821  -4.010  0.00  0.00    +0.000 C 
ATOM     21  H   UNL     1      14.014 -11.288  -4.994  0.00  0.00    +0.000 HD
ATOM     22  H   UNL     1      14.675 -11.198  -3.366  0.00  0.00    +0.000 HD
BRANCH  20  23
ATOM     23  C   UNL     1      13.997  -9.305  -4.143  0.00  0.00    +0.000 C 
ATOM     24  H   UNL     1      13.101  -8.823  -3.736  0.00  0.00    +0.000 HD
ATOM     25  H   UNL     1      14.872  -8.961  -3.581  0.00  0.00    +0.000 HD
BRANCH  23  27
ATOM     26  O   UNL     1      14.930  -7.980  -5.932  0.00  0.00    +0.000 OA
ATOM     27  C   UNL     1      14.157  -8.862  -5.577  0.00  0.00    +0.000 C 
BRANCH  27  28
ATOM     28  O   UNL     1      13.325  -9.579  -6.384  0.00  0.00    +0.000 OA
BRANCH  28  29
ATOM     29  C   UNL     1      12.092  -8.937  -6.721  0.00  0.00    +0.000 C 
ATOM     30  H   UNL     1      11.778  -9.225  -7.729  0.00  0.00    +0.000 HD
ATOM     31  H   UNL     1      12.253  -7.856  -6.699  0.00  0.00    +0.000 HD
ATOM     32  H   UNL     1      11.318  -9.191  -5.989  0.00  0.00    +0.000 HD
ENDBRANCH  28  29
ENDBRANCH  27  28
ENDBRANCH  23  27
ENDBRANCH  20  23
ENDBRANCH  17  20
ENDBRANCH   1  17
TORSDOF 10
ENDMDL
MODEL 10
REMARK VINA RESULT:    -3.632     14.043     16.015
REMARK INTER + INTRA:          -6.239
REMARK INTER:                  -5.543
REMARK INTRA:                  -0.695
REMARK UNBOUND:                -0.695
REMARK  Name = 15606
REMARK  10 active torsions:
REMARK  status: ('A' for Active; 'I' for Inactive)
REMARK    1  A    between atoms: O_1  and  C_11
REMARK    2  A    between atoms: O_1  and  C_12
REMARK    3  A    between atoms: C_3  and  C_4
REMARK    4  A    between atoms: C_3  and  C_5
REMARK    5  A    between atoms: C_4  and  C_6
REMARK    6  A    between atoms: C_5  and  C_7
REMARK    7  A    between atoms: C_6  and  C_8
REMARK    8  A    between atoms: C_7  and  C_9
REMARK    9  A    between atoms: C_8  and  C_10
REMARK   10  A    between atoms: C_9  and  C_11
REMARK                            x       y       z     vdW  Elec       q    Type
REMARK                         _______ _______ _______ _____ _____    ______ ____
ROOT
ATOM      1  C   UNL     1      -3.559  -6.672  -9.617  0.00  0.00    +0.000 C 
ATOM      2  H   UNL     1      -3.215  -6.226 -10.557  0.00  0.00    +0.000 HD
ATOM      3  H   UNL     1      -3.256  -5.990  -8.813  0.00  0.00    +0.000 HD
ENDROOT
BRANCH   1   4
ATOM      4  C   UNL     1      -2.857  -8.019  -9.417  0.00  0.00    +0.000 C 
ATOM      5  H   UNL     1      -2.244  -8.240 -10.300  0.00  0.00    +0.000 HD
ATOM      6  H   UNL     1      -2.168  -7.935  -8.568  0.00  0.00    +0.000 HD
BRANCH   4   7
ATOM      7  C   UNL     1      -3.824  -9.180  -9.173  0.00  0.00    +0.000 C 
ATOM      8  H   UNL     1      -3.667  -9.955  -9.933  0.00  0.00    +0.000 HD
ATOM      9  H   UNL     1      -4.855  -8.823  -9.282  0.00  0.00    +0.000 HD
BRANCH   7  10
ATOM     10  C   UNL     1      -3.632  -9.775  -7.777  0.00  0.00    +0.000 C 
ATOM     11  H   UNL     1      -3.051  -9.086  -7.154  0.00  0.00    +0.000 HD
ATOM     12  H   UNL     1      -3.064 -10.709  -7.846  0.00  0.00    +0.000 HD
BRANCH  10  13
ATOM     13  C   UNL     1      -4.966 -10.048  -7.101  0.00  0.00    +0.000 C 
ATOM     14  H   UNL     1      -5.793  -9.950  -7.812  0.00  0.00    +0.000 HD
ATOM     15  H   UNL     1      -5.138  -9.351  -6.274  0.00  0.00    +0.000 HD
ATOM     16  H   UNL     1      -4.985 -11.065  -6.697  0.00  0.00    +0.000 HD
ENDBRANCH  10  13
ENDBRANCH   7  10
ENDBRANCH   4   7
ENDBRANCH   1   4
BRANCH   1  17
ATOM     17  C   UNL     1      -5.086  -6.780  -9.638  0.00  0.00    +0.000 C 
ATOM     18  H   UNL     1      -5.468  -6.421 -10.600  0.00  0.00    +0.000 HD
ATOM     19  H   UNL     1      -5.380  -7.833  -9.544  0.00  0.00    +0.000 HD
BRANCH  17  20
ATOM     20  C   UNL     1      -5.712  -5.969  -8.499  0.00  0.00    +0.000 C 
ATOM     21  H   UNL     1      -6.304  -5.146  -8.921  0.00  0.00    +0.000 HD
ATOM     22  H   UNL     1      -4.917  -5.506  -7.901  0.00  0.00    +0.000 HD
BRANCH  20  23
ATOM     23  C   UNL     1      -6.597  -6.822  -7.593  0.00  0.00    +0.000 C 
ATOM     24  H   UNL     1      -6.491  -7.879  -7.863  0.00  0.00    +0.000 HD
ATOM     25  H   UNL     1      -6.289  -6.688  -6.551  0.00  0.00    +0.000 HD
BRANCH  23  27
ATOM     26  O   UNL     1      -8.971  -7.214  -7.404  0.00  0.00    +0.000 OA
ATOM     27  C   UNL     1      -8.057  -6.455  -7.700  0.00  0.00    +0.000 C 
BRANCH  27  28
ATOM     28  O   UNL     1      -8.186  -5.181  -8.168  0.00  0.00    +0.000 OA
BRANCH  28  29
ATOM     29  C   UNL     1      -9.212  -4.399  -7.549  0.00  0.00    +0.000 C 
ATOM     30  H   UNL     1      -8.927  -3.343  -7.532  0.00  0.00    +0.000 HD
ATOM     31  H   UNL     1      -9.331  -4.747  -6.519  0.00  0.00    +0.000 HD
ATOM     32  H   UNL     1     -10.163  -4.534  -8.076  0.00  0.00    +0.000 HD
ENDBRANCH  28  29
ENDBRANCH  27  28
ENDBRANCH  23  27
ENDBRANCH  20  23
ENDBRANCH  17  20
ENDBRANCH   1  17
TORSDOF 10
ENDMDL
