MODEL 1
REMARK VINA RESULT:    -4.531      0.000      0.000
REMARK INTER + INTRA:          -5.955
REMARK INTER:                  -5.782
REMARK INTRA:                  -0.173
REMARK UNBOUND:                -0.232
REMARK  Name = 82336
REMARK  6 active torsions:
REMARK  status: ('A' for Active; 'I' for Inactive)
REMARK    1  A    between atoms: O_1  and  C_12
REMARK    2  A    between atoms: O_1  and  C_13
REMARK    3  A    between atoms: N_3  and  C_4
REMARK    4  A    between atoms: N_3  and  C_8
REMARK    5  A    between atoms: N_3  and  C_9
REMARK    6  A    between atoms: C_5  and  C_12
REMARK                            x       y       z     vdW  Elec       q    Type
REMARK                         _______ _______ _______ _____ _____    ______ ____
ROOT
ATOM      1  C   UNL     1       3.084  -5.283  15.321  0.00  0.00    +0.000 A 
ATOM      2  C   UNL     1       1.705  -5.147  15.485  0.00  0.00    +0.000 A 
ATOM      3  C   UNL     1       3.867  -4.164  15.043  0.00  0.00    +0.000 A 
ATOM      4  C   UNL     1       1.110  -3.891  15.369  0.00  0.00    +0.000 A 
ATOM      5  C   UNL     1       3.272  -2.908  14.926  0.00  0.00    +0.000 A 
ATOM      6  C   UNL     1       1.893  -2.772  15.089  0.00  0.00    +0.000 A 
ATOM      7  H   UNL     1       4.942  -4.252  14.906  0.00  0.00    +0.000 HD
ATOM      8  H   UNL     1       0.037  -3.772  15.494  0.00  0.00    +0.000 HD
ATOM      9  H   UNL     1       3.882  -2.036  14.707  0.00  0.00    +0.000 HD
ATOM     10  H   UNL     1       1.430  -1.793  14.999  0.00  0.00    +0.000 HD
ENDROOT
BRANCH   2  12
ATOM     11  O   UNL     1       0.359  -7.032  14.918  0.00  0.00    +0.000 OA
ATOM     12  C   UNL     1       0.859  -6.297  15.778  0.00  0.00    +0.000 C 
BRANCH  12  13
ATOM     13  O   UNL     1       0.689  -6.463  17.124  0.00  0.00    +0.000 OA
BRANCH  13  14
ATOM     14  C   UNL     1      -0.392  -7.305  17.538  0.00  0.00    +0.000 C 
ATOM     15  H   UNL     1      -0.010  -8.285  17.839  0.00  0.00    +0.000 HD
ATOM     16  H   UNL     1      -1.122  -7.408  16.729  0.00  0.00    +0.000 HD
ATOM     17  H   UNL     1      -0.880  -6.838  18.397  0.00  0.00    +0.000 HD
ENDBRANCH  13  14
ENDBRANCH  12  13
ENDBRANCH   2  12
BRANCH   1  18
ATOM     18  N   UNL     1       3.706  -6.547  15.435  0.00  0.00    +0.000 N 
BRANCH  18  19
ATOM     19  C   UNL     1       3.878  -7.386  14.268  0.00  0.00    +0.000 C 
ATOM     20  H   UNL     1       3.886  -8.446  14.545  0.00  0.00    +0.000 HD
ATOM     21  H   UNL     1       4.818  -7.151  13.756  0.00  0.00    +0.000 HD
ATOM     22  H   UNL     1       3.063  -7.241  13.552  0.00  0.00    +0.000 HD
ENDBRANCH  18  19
BRANCH  18  23
ATOM     23  C   UNL     1       4.191  -7.010  16.719  0.00  0.00    +0.000 C 
ATOM     24  H   UNL     1       3.454  -6.797  17.500  0.00  0.00    +0.000 HD
ATOM     25  H   UNL     1       5.121  -6.512  17.015  0.00  0.00    +0.000 HD
ATOM     26  H   UNL     1       4.353  -8.093  16.704  0.00  0.00    +0.000 HD
ENDBRANCH  18  23
ENDBRANCH   1  18
TORSDOF 6
ENDMDL
MODEL 2
REMARK VINA RESULT:    -4.349     23.521     25.441
REMARK INTER + INTRA:          -5.725
REMARK INTER:                  -5.559
REMARK INTRA:                  -0.166
REMARK UNBOUND:                -0.232
REMARK  Name = 82336
REMARK  6 active torsions:
REMARK  status: ('A' for Active; 'I' for Inactive)
REMARK    1  A    between atoms: O_1  and  C_12
REMARK    2  A    between atoms: O_1  and  C_13
REMARK    3  A    between atoms: N_3  and  C_4
REMARK    4  A    between atoms: N_3  and  C_8
REMARK    5  A    between atoms: N_3  and  C_9
REMARK    6  A    between atoms: C_5  and  C_12
REMARK                            x       y       z     vdW  Elec       q    Type
REMARK                         _______ _______ _______ _____ _____    ______ ____
ROOT
ATOM      1  C   UNL     1       7.259  13.882   0.637  0.00  0.00    +0.000 A 
ATOM      2  C   UNL     1       6.868  12.841  -0.206  0.00  0.00    +0.000 A 
ATOM      3  C   UNL     1       6.909  13.854   1.987  0.00  0.00    +0.000 A 
ATOM      4  C   UNL     1       6.127  11.774   0.300  0.00  0.00    +0.000 A 
ATOM      5  C   UNL     1       6.168  12.787   2.493  0.00  0.00    +0.000 A 
ATOM      6  C   UNL     1       5.777  11.747   1.650  0.00  0.00    +0.000 A 
ATOM      7  H   UNL     1       7.199  14.659   2.658  0.00  0.00    +0.000 HD
ATOM      8  H   UNL     1       5.817  10.958  -0.347  0.00  0.00    +0.000 HD
ATOM      9  H   UNL     1       5.893  12.766   3.544  0.00  0.00    +0.000 HD
ATOM     10  H   UNL     1       5.199  10.916   2.044  0.00  0.00    +0.000 HD
ENDROOT
BRANCH   2  12
ATOM     11  O   UNL     1       6.586  13.443  -2.497  0.00  0.00    +0.000 OA
ATOM     12  C   UNL     1       7.219  12.840  -1.621  0.00  0.00    +0.000 C 
BRANCH  12  13
ATOM     13  O   UNL     1       8.337  12.090  -1.859  0.00  0.00    +0.000 OA
BRANCH  13  14
ATOM     14  C   UNL     1       8.763  11.982  -3.221  0.00  0.00    +0.000 C 
ATOM     15  H   UNL     1       8.460  11.015  -3.633  0.00  0.00    +0.000 HD
ATOM     16  H   UNL     1       9.848  12.107  -3.289  0.00  0.00    +0.000 HD
ATOM     17  H   UNL     1       8.279  12.776  -3.794  0.00  0.00    +0.000 HD
ENDBRANCH  13  14
ENDBRANCH  12  13
ENDBRANCH   2  12
BRANCH   1  18
ATOM     18  N   UNL     1       8.010  14.972   0.144  0.00  0.00    +0.000 N 
BRANCH  18  19
ATOM     19  C   UNL     1       7.344  16.178  -0.303  0.00  0.00    +0.000 C 
ATOM     20  H   UNL     1       6.781  15.995  -1.225  0.00  0.00    +0.000 HD
ATOM     21  H   UNL     1       8.070  16.976  -0.489  0.00  0.00    +0.000 HD
ATOM     22  H   UNL     1       6.634  16.540   0.447  0.00  0.00    +0.000 HD
ENDBRANCH  18  19
BRANCH  18  23
ATOM     23  C   UNL     1       9.456  14.901   0.094  0.00  0.00    +0.000 C 
ATOM     24  H   UNL     1       9.883  15.232   1.047  0.00  0.00    +0.000 HD
ATOM     25  H   UNL     1       9.876  15.548  -0.685  0.00  0.00    +0.000 HD
ATOM     26  H   UNL     1       9.788  13.872  -0.077  0.00  0.00    +0.000 HD
ENDBRANCH  18  23
ENDBRANCH   1  18
TORSDOF 6
ENDMDL
MODEL 3
REMARK VINA RESULT:    -4.320      2.050      3.274
REMARK INTER + INTRA:          -5.689
REMARK INTER:                  -5.451
REMARK INTRA:                  -0.238
REMARK UNBOUND:                -0.232
REMARK  Name = 82336
REMARK  6 active torsions:
REMARK  status: ('A' for Active; 'I' for Inactive)
REMARK    1  A    between atoms: O_1  and  C_12
REMARK    2  A    between atoms: O_1  and  C_13
REMARK    3  A    between atoms: N_3  and  C_4
REMARK    4  A    between atoms: N_3  and  C_8
REMARK    5  A    between atoms: N_3  and  C_9
REMARK    6  A    between atoms: C_5  and  C_12
REMARK                            x       y       z     vdW  Elec       q    Type
REMARK                         _______ _______ _______ _____ _____    ______ ____
ROOT
ATOM      1  C   UNL     1       2.138  -5.100  15.574  0.00  0.00    +0.000 A 
ATOM      2  C   UNL     1       3.483  -4.922  15.247  0.00  0.00    +0.000 A 
ATOM      3  C   UNL     1       1.254  -4.023  15.502  0.00  0.00    +0.000 A 
ATOM      4  C   UNL     1       3.944  -3.667  14.850  0.00  0.00    +0.000 A 
ATOM      5  C   UNL     1       1.715  -2.768  15.105  0.00  0.00    +0.000 A 
ATOM      6  C   UNL     1       3.060  -2.590  14.779  0.00  0.00    +0.000 A 
ATOM      7  H   UNL     1       0.205  -4.141  15.759  0.00  0.00    +0.000 HD
ATOM      8  H   UNL     1       4.989  -3.516  14.594  0.00  0.00    +0.000 HD
ATOM      9  H   UNL     1       1.028  -1.929  15.051  0.00  0.00    +0.000 HD
ATOM     10  H   UNL     1       3.419  -1.612  14.470  0.00  0.00    +0.000 HD
ENDROOT
BRANCH   2  12
ATOM     11  O   UNL     1       4.657  -6.807  14.379  0.00  0.00    +0.000 OA
ATOM     12  C   UNL     1       4.431  -6.027  15.312  0.00  0.00    +0.000 C 
BRANCH  12  13
ATOM     13  O   UNL     1       5.041  -6.092  16.534  0.00  0.00    +0.000 OA
BRANCH  13  14
ATOM     14  C   UNL     1       5.279  -7.399  17.066  0.00  0.00    +0.000 C 
ATOM     15  H   UNL     1       5.298  -8.136  16.258  0.00  0.00    +0.000 HD
ATOM     16  H   UNL     1       4.510  -7.653  17.803  0.00  0.00    +0.000 HD
ATOM     17  H   UNL     1       6.254  -7.394  17.561  0.00  0.00    +0.000 HD
ENDBRANCH  13  14
ENDBRANCH  12  13
ENDBRANCH   2  12
BRANCH   1  18
ATOM     18  N   UNL     1       1.651  -6.363  15.979  0.00  0.00    +0.000 N 
BRANCH  18  19
ATOM     19  C   UNL     1       1.605  -6.715  17.382  0.00  0.00    +0.000 C 
ATOM     20  H   UNL     1       2.606  -6.951  17.760  0.00  0.00    +0.000 HD
ATOM     21  H   UNL     1       0.956  -7.582  17.545  0.00  0.00    +0.000 HD
ATOM     22  H   UNL     1       1.216  -5.888  17.986  0.00  0.00    +0.000 HD
ENDBRANCH  18  19
BRANCH  18  23
ATOM     23  C   UNL     1       1.179  -7.315  14.994  0.00  0.00    +0.000 C 
ATOM     24  H   UNL     1       0.087  -7.263  14.913  0.00  0.00    +0.000 HD
ATOM     25  H   UNL     1       1.429  -8.347  15.262  0.00  0.00    +0.000 HD
ATOM     26  H   UNL     1       1.595  -7.089  14.007  0.00  0.00    +0.000 HD
ENDBRANCH  18  23
ENDBRANCH   1  18
TORSDOF 6
ENDMDL
MODEL 4
REMARK VINA RESULT:    -4.268      1.728      3.760
REMARK INTER + INTRA:          -5.623
REMARK INTER:                  -5.409
REMARK INTRA:                  -0.213
REMARK UNBOUND:                -0.232
REMARK  Name = 82336
REMARK  6 active torsions:
REMARK  status: ('A' for Active; 'I' for Inactive)
REMARK    1  A    between atoms: O_1  and  C_12
REMARK    2  A    between atoms: O_1  and  C_13
REMARK    3  A    between atoms: N_3  and  C_4
REMARK    4  A    between atoms: N_3  and  C_8
REMARK    5  A    between atoms: N_3  and  C_9
REMARK    6  A    between atoms: C_5  and  C_12
REMARK                            x       y       z     vdW  Elec       q    Type
REMARK                         _______ _______ _______ _____ _____    ______ ____
ROOT
ATOM      1  C   UNL     1       1.903  -6.413  16.846  0.00  0.00    +0.000 A 
ATOM      2  C   UNL     1       1.232  -5.531  15.999  0.00  0.00    +0.000 A 
ATOM      3  C   UNL     1       1.182  -7.315  17.629  0.00  0.00    +0.000 A 
ATOM      4  C   UNL     1      -0.162  -5.550  15.936  0.00  0.00    +0.000 A 
ATOM      5  C   UNL     1      -0.211  -7.333  17.566  0.00  0.00    +0.000 A 
ATOM      6  C   UNL     1      -0.883  -6.451  16.720  0.00  0.00    +0.000 A 
ATOM      7  H   UNL     1       1.688  -8.005  18.299  0.00  0.00    +0.000 HD
ATOM      8  H   UNL     1      -0.696  -4.868  15.280  0.00  0.00    +0.000 HD
ATOM      9  H   UNL     1      -0.773  -8.034  18.177  0.00  0.00    +0.000 HD
ATOM     10  H   UNL     1      -1.968  -6.465  16.670  0.00  0.00    +0.000 HD
ENDROOT
BRANCH   2  12
ATOM     11  O   UNL     1       2.338  -4.808  14.014  0.00  0.00    +0.000 OA
ATOM     12  C   UNL     1       1.956  -4.578  15.169  0.00  0.00    +0.000 C 
BRANCH  12  13
ATOM     13  O   UNL     1       2.161  -3.396  15.825  0.00  0.00    +0.000 OA
BRANCH  13  14
ATOM     14  C   UNL     1       3.292  -2.620  15.418  0.00  0.00    +0.000 C 
ATOM     15  H   UNL     1       3.901  -3.187  14.707  0.00  0.00    +0.000 HD
ATOM     16  H   UNL     1       3.886  -2.331  16.290  0.00  0.00    +0.000 HD
ATOM     17  H   UNL     1       2.926  -1.716  14.925  0.00  0.00    +0.000 HD
ENDBRANCH  13  14
ENDBRANCH  12  13
ENDBRANCH   2  12
BRANCH   1  18
ATOM     18  N   UNL     1       3.314  -6.411  16.925  0.00  0.00    +0.000 N 
BRANCH  18  19
ATOM     19  C   UNL     1       3.989  -5.631  17.941  0.00  0.00    +0.000 C 
ATOM     20  H   UNL     1       3.266  -5.111  18.580  0.00  0.00    +0.000 HD
ATOM     21  H   UNL     1       4.651  -4.888  17.485  0.00  0.00    +0.000 HD
ATOM     22  H   UNL     1       4.599  -6.268  18.590  0.00  0.00    +0.000 HD
ENDBRANCH  18  19
BRANCH  18  23
ATOM     23  C   UNL     1       4.100  -7.199  15.999  0.00  0.00    +0.000 C 
ATOM     24  H   UNL     1       3.513  -7.422  15.101  0.00  0.00    +0.000 HD
ATOM     25  H   UNL     1       4.404  -8.161  16.426  0.00  0.00    +0.000 HD
ATOM     26  H   UNL     1       4.992  -6.650  15.682  0.00  0.00    +0.000 HD
ENDBRANCH  18  23
ENDBRANCH   1  18
TORSDOF 6
ENDMDL
MODEL 5
REMARK VINA RESULT:    -4.249     20.036     22.023
REMARK INTER + INTRA:          -5.598
REMARK INTER:                  -5.439
REMARK INTRA:                  -0.159
REMARK UNBOUND:                -0.232
REMARK  Name = 82336
REMARK  6 active torsions:
REMARK  status: ('A' for Active; 'I' for Inactive)
REMARK    1  A    between atoms: O_1  and  C_12
REMARK    2  A    between atoms: O_1  and  C_13
REMARK    3  A    between atoms: N_3  and  C_4
REMARK    4  A    between atoms: N_3  and  C_8
REMARK    5  A    between atoms: N_3  and  C_9
REMARK    6  A    between atoms: C_5  and  C_12
REMARK                            x       y       z     vdW  Elec       q    Type
REMARK                         _______ _______ _______ _____ _____    ______ ____
ROOT
ATOM      1  C   UNL     1      10.834 -11.617  -3.273  0.00  0.00    +0.000 A 
ATOM      2  C   UNL     1      11.239 -10.408  -2.707  0.00  0.00    +0.000 A 
ATOM      3  C   UNL     1       9.773 -12.329  -2.713  0.00  0.00    +0.000 A 
ATOM      4  C   UNL     1      10.583  -9.911  -1.581  0.00  0.00    +0.000 A 
ATOM      5  C   UNL     1       9.118 -11.832  -1.587  0.00  0.00    +0.000 A 
ATOM      6  C   UNL     1       9.523 -10.623  -1.020  0.00  0.00    +0.000 A 
ATOM      7  H   UNL     1       9.448 -13.276  -3.136  0.00  0.00    +0.000 HD
ATOM      8  H   UNL     1      10.890  -8.970  -1.131  0.00  0.00    +0.000 HD
ATOM      9  H   UNL     1       8.293 -12.387  -1.149  0.00  0.00    +0.000 HD
ATOM     10  H   UNL     1       9.012 -10.236  -0.143  0.00  0.00    +0.000 HD
ENDROOT
BRANCH   2  12
ATOM     11  O   UNL     1      13.490  -9.628  -2.807  0.00  0.00    +0.000 OA
ATOM     12  C   UNL     1      12.343  -9.640  -3.269  0.00  0.00    +0.000 C 
BRANCH  12  13
ATOM     13  O   UNL     1      11.951  -8.936  -4.374  0.00  0.00    +0.000 OA
BRANCH  13  14
ATOM     14  C   UNL     1      12.875  -8.883  -5.465  0.00  0.00    +0.000 C 
ATOM     15  H   UNL     1      12.997  -9.877  -5.903  0.00  0.00    +0.000 HD
ATOM     16  H   UNL     1      13.839  -8.489  -5.126  0.00  0.00    +0.000 HD
ATOM     17  H   UNL     1      12.467  -8.211  -6.225  0.00  0.00    +0.000 HD
ENDBRANCH  13  14
ENDBRANCH  12  13
ENDBRANCH   2  12
BRANCH   1  18
ATOM     18  N   UNL     1      11.485 -12.138  -4.414  0.00  0.00    +0.000 N 
BRANCH  18  19
ATOM     19  C   UNL     1      12.755 -12.821  -4.284  0.00  0.00    +0.000 C 
ATOM     20  H   UNL     1      13.577 -12.189  -4.637  0.00  0.00    +0.000 HD
ATOM     21  H   UNL     1      12.756 -13.752  -4.862  0.00  0.00    +0.000 HD
ATOM     22  H   UNL     1      12.963 -13.076  -3.240  0.00  0.00    +0.000 HD
ENDBRANCH  18  19
BRANCH  18  23
ATOM     23  C   UNL     1      10.881 -12.007  -5.724  0.00  0.00    +0.000 C 
ATOM     24  H   UNL     1      11.244 -11.097  -6.216  0.00  0.00    +0.000 HD
ATOM     25  H   UNL     1       9.790 -11.926  -5.672  0.00  0.00    +0.000 HD
ATOM     26  H   UNL     1      11.148 -12.856  -6.361  0.00  0.00    +0.000 HD
ENDBRANCH  18  23
ENDBRANCH   1  18
TORSDOF 6
ENDMDL
MODEL 6
REMARK VINA RESULT:    -4.050     27.626     29.107
REMARK INTER + INTRA:          -5.348
REMARK INTER:                  -5.114
REMARK INTRA:                  -0.233
REMARK UNBOUND:                -0.232
REMARK  Name = 82336
REMARK  6 active torsions:
REMARK  status: ('A' for Active; 'I' for Inactive)
REMARK    1  A    between atoms: O_1  and  C_12
REMARK    2  A    between atoms: O_1  and  C_13
REMARK    3  A    between atoms: N_3  and  C_4
REMARK    4  A    between atoms: N_3  and  C_8
REMARK    5  A    between atoms: N_3  and  C_9
REMARK    6  A    between atoms: C_5  and  C_12
REMARK                            x       y       z     vdW  Elec       q    Type
REMARK                         _______ _______ _______ _____ _____    ______ ____
ROOT
ATOM      1  C   UNL     1     -15.383  14.551   4.325  0.00  0.00    +0.000 A 
ATOM      2  C   UNL     1     -15.460  13.215   3.934  0.00  0.00    +0.000 A 
ATOM      3  C   UNL     1     -15.469  14.889   5.676  0.00  0.00    +0.000 A 
ATOM      4  C   UNL     1     -15.625  12.216   4.894  0.00  0.00    +0.000 A 
ATOM      5  C   UNL     1     -15.633  13.890   6.635  0.00  0.00    +0.000 A 
ATOM      6  C   UNL     1     -15.712  12.554   6.244  0.00  0.00    +0.000 A 
ATOM      7  H   UNL     1     -15.417  15.926   5.999  0.00  0.00    +0.000 HD
ATOM      8  H   UNL     1     -15.687  11.171   4.601  0.00  0.00    +0.000 HD
ATOM      9  H   UNL     1     -15.703  14.153   7.687  0.00  0.00    +0.000 HD
ATOM     10  H   UNL     1     -15.840  11.776   6.992  0.00  0.00    +0.000 HD
ENDROOT
BRANCH   2  12
ATOM     11  O   UNL     1     -14.316  12.569   1.944  0.00  0.00    +0.000 OA
ATOM     12  C   UNL     1     -15.373  12.829   2.532  0.00  0.00    +0.000 C 
BRANCH  12  13
ATOM     13  O   UNL     1     -16.608  12.789   1.946  0.00  0.00    +0.000 OA
BRANCH  13  14
ATOM     14  C   UNL     1     -16.705  13.296   0.611  0.00  0.00    +0.000 C 
ATOM     15  H   UNL     1     -17.700  13.717   0.440  0.00  0.00    +0.000 HD
ATOM     16  H   UNL     1     -16.494  12.501  -0.111  0.00  0.00    +0.000 HD
ATOM     17  H   UNL     1     -15.962  14.088   0.492  0.00  0.00    +0.000 HD
ENDBRANCH  13  14
ENDBRANCH  12  13
ENDBRANCH   2  12
BRANCH   1  18
ATOM     18  N   UNL     1     -15.216  15.578   3.369  0.00  0.00    +0.000 N 
BRANCH  18  19
ATOM     19  C   UNL     1     -16.367  16.281   2.841  0.00  0.00    +0.000 C 
ATOM     20  H   UNL     1     -16.631  15.907   1.846  0.00  0.00    +0.000 HD
ATOM     21  H   UNL     1     -16.168  17.355   2.770  0.00  0.00    +0.000 HD
ATOM     22  H   UNL     1     -17.244  16.146   3.484  0.00  0.00    +0.000 HD
ENDBRANCH  18  19
BRANCH  18  23
ATOM     23  C   UNL     1     -13.891  15.950   2.918  0.00  0.00    +0.000 C 
ATOM     24  H   UNL     1     -13.434  15.119   2.368  0.00  0.00    +0.000 HD
ATOM     25  H   UNL     1     -13.220  16.187   3.751  0.00  0.00    +0.000 HD
ATOM     26  H   UNL     1     -13.939  16.808   2.240  0.00  0.00    +0.000 HD
ENDBRANCH  18  23
ENDBRANCH   1  18
TORSDOF 6
ENDMDL
MODEL 7
REMARK VINA RESULT:    -4.043     26.685     28.549
REMARK INTER + INTRA:          -5.339
REMARK INTER:                  -5.161
REMARK INTRA:                  -0.178
REMARK UNBOUND:                -0.232
REMARK  Name = 82336
REMARK  6 active torsions:
REMARK  status: ('A' for Active; 'I' for Inactive)
REMARK    1  A    between atoms: O_1  and  C_12
REMARK    2  A    between atoms: O_1  and  C_13
REMARK    3  A    between atoms: N_3  and  C_4
REMARK    4  A    between atoms: N_3  and  C_8
REMARK    5  A    between atoms: N_3  and  C_9
REMARK    6  A    between atoms: C_5  and  C_12
REMARK                            x       y       z     vdW  Elec       q    Type
REMARK                         _______ _______ _______ _____ _____    ______ ____
ROOT
ATOM      1  C   UNL     1       7.585  13.478  -4.163  0.00  0.00    +0.000 A 
ATOM      2  C   UNL     1       8.733  12.687  -4.206  0.00  0.00    +0.000 A 
ATOM      3  C   UNL     1       6.845  13.572  -2.985  0.00  0.00    +0.000 A 
ATOM      4  C   UNL     1       9.140  11.988  -3.070  0.00  0.00    +0.000 A 
ATOM      5  C   UNL     1       7.252  12.872  -1.849  0.00  0.00    +0.000 A 
ATOM      6  C   UNL     1       8.399  12.080  -1.892  0.00  0.00    +0.000 A 
ATOM      7  H   UNL     1       5.945  14.178  -2.935  0.00  0.00    +0.000 HD
ATOM      8  H   UNL     1      10.032  11.367  -3.091  0.00  0.00    +0.000 HD
ATOM      9  H   UNL     1       6.675  12.943  -0.931  0.00  0.00    +0.000 HD
ATOM     10  H   UNL     1       8.717  11.535  -1.007  0.00  0.00    +0.000 HD
ENDROOT
BRANCH   2  12
ATOM     11  O   UNL     1       9.212  11.877  -6.397  0.00  0.00    +0.000 OA
ATOM     12  C   UNL     1       9.527  12.569  -5.422  0.00  0.00    +0.000 C 
BRANCH  12  13
ATOM     13  O   UNL     1      10.667  13.322  -5.349  0.00  0.00    +0.000 OA
BRANCH  13  14
ATOM     14  C   UNL     1      11.078  13.986  -6.549  0.00  0.00    +0.000 C 
ATOM     15  H   UNL     1      10.631  14.983  -6.599  0.00  0.00    +0.000 HD
ATOM     16  H   UNL     1      10.796  13.393  -7.425  0.00  0.00    +0.000 HD
ATOM     17  H   UNL     1      12.165  14.088  -6.527  0.00  0.00    +0.000 HD
ENDBRANCH  13  14
ENDBRANCH  12  13
ENDBRANCH   2  12
BRANCH   1  18
ATOM     18  N   UNL     1       7.155  14.195  -5.303  0.00  0.00    +0.000 N 
BRANCH  18  19
ATOM     19  C   UNL     1       6.184  13.616  -6.208  0.00  0.00    +0.000 C 
ATOM     20  H   UNL     1       5.954  14.306  -7.028  0.00  0.00    +0.000 HD
ATOM     21  H   UNL     1       5.255  13.377  -5.680  0.00  0.00    +0.000 HD
ATOM     22  H   UNL     1       6.562  12.691  -6.656  0.00  0.00    +0.000 HD
ENDBRANCH  18  19
BRANCH  18  23
ATOM     23  C   UNL     1       7.670  15.522  -5.570  0.00  0.00    +0.000 C 
ATOM     24  H   UNL     1       7.119  15.981  -6.398  0.00  0.00    +0.000 HD
ATOM     25  H   UNL     1       8.726  15.506  -5.862  0.00  0.00    +0.000 HD
ATOM     26  H   UNL     1       7.550  16.168  -4.695  0.00  0.00    +0.000 HD
ENDBRANCH  18  23
ENDBRANCH   1  18
TORSDOF 6
ENDMDL
MODEL 8
REMARK VINA RESULT:    -3.876     29.424     31.072
REMARK INTER + INTRA:          -5.128
REMARK INTER:                  -4.908
REMARK INTRA:                  -0.220
REMARK UNBOUND:                -0.232
REMARK  Name = 82336
REMARK  6 active torsions:
REMARK  status: ('A' for Active; 'I' for Inactive)
REMARK    1  A    between atoms: O_1  and  C_12
REMARK    2  A    between atoms: O_1  and  C_13
REMARK    3  A    between atoms: N_3  and  C_4
REMARK    4  A    between atoms: N_3  and  C_8
REMARK    5  A    between atoms: N_3  and  C_9
REMARK    6  A    between atoms: C_5  and  C_12
REMARK                            x       y       z     vdW  Elec       q    Type
REMARK                         _______ _______ _______ _____ _____    ______ ____
ROOT
ATOM      1  C   UNL     1       8.390  14.731  -7.782  0.00  0.00    +0.000 A 
ATOM      2  C   UNL     1       7.016  14.881  -7.597  0.00  0.00    +0.000 A 
ATOM      3  C   UNL     1       9.019  15.343  -8.866  0.00  0.00    +0.000 A 
ATOM      4  C   UNL     1       6.270  15.643  -8.495  0.00  0.00    +0.000 A 
ATOM      5  C   UNL     1       8.273  16.105  -9.765  0.00  0.00    +0.000 A 
ATOM      6  C   UNL     1       6.898  16.255  -9.580  0.00  0.00    +0.000 A 
ATOM      7  H   UNL     1      10.087  15.232  -9.030  0.00  0.00    +0.000 HD
ATOM      8  H   UNL     1       5.198  15.767  -8.361  0.00  0.00    +0.000 HD
ATOM      9  H   UNL     1       8.761  16.581 -10.611  0.00  0.00    +0.000 HD
ATOM     10  H   UNL     1       6.317  16.848 -10.280  0.00  0.00    +0.000 HD
ENDROOT
BRANCH   2  12
ATOM     11  O   UNL     1       5.860  13.110  -6.493  0.00  0.00    +0.000 OA
ATOM     12  C   UNL     1       6.330  14.254  -6.474  0.00  0.00    +0.000 C 
BRANCH  12  13
ATOM     13  O   UNL     1       6.272  15.090  -5.393  0.00  0.00    +0.000 OA
BRANCH  13  14
ATOM     14  C   UNL     1       6.517  14.504  -4.111  0.00  0.00    +0.000 C 
ATOM     15  H   UNL     1       5.569  14.284  -3.610  0.00  0.00    +0.000 HD
ATOM     16  H   UNL     1       7.130  15.174  -3.500  0.00  0.00    +0.000 HD
ATOM     17  H   UNL     1       7.061  13.568  -4.262  0.00  0.00    +0.000 HD
ENDBRANCH  13  14
ENDBRANCH  12  13
ENDBRANCH   2  12
BRANCH   1  18
ATOM     18  N   UNL     1       9.164  13.963  -6.883  0.00  0.00    +0.000 N 
BRANCH  18  19
ATOM     19  C   UNL     1       9.811  14.593  -5.751  0.00  0.00    +0.000 C 
ATOM     20  H   UNL     1      10.123  13.847  -5.013  0.00  0.00    +0.000 HD
ATOM     21  H   UNL     1       9.136  15.306  -5.265  0.00  0.00    +0.000 HD
ATOM     22  H   UNL     1      10.708  15.141  -6.061  0.00  0.00    +0.000 HD
ENDBRANCH  18  19
BRANCH  18  23
ATOM     23  C   UNL     1       9.307  12.535  -7.076  0.00  0.00    +0.000 C 
ATOM     24  H   UNL     1       9.331  12.024  -6.107  0.00  0.00    +0.000 HD
ATOM     25  H   UNL     1      10.238  12.277  -7.593  0.00  0.00    +0.000 HD
ATOM     26  H   UNL     1       8.460  12.133  -7.641  0.00  0.00    +0.000 HD
ENDBRANCH  18  23
ENDBRANCH   1  18
TORSDOF 6
ENDMDL
MODEL 9
REMARK VINA RESULT:    -3.874     24.357     25.251
REMARK INTER + INTRA:          -5.125
REMARK INTER:                  -4.907
REMARK INTRA:                  -0.219
REMARK UNBOUND:                -0.232
REMARK  Name = 82336
REMARK  6 active torsions:
REMARK  status: ('A' for Active; 'I' for Inactive)
REMARK    1  A    between atoms: O_1  and  C_12
REMARK    2  A    between atoms: O_1  and  C_13
REMARK    3  A    between atoms: N_3  and  C_4
REMARK    4  A    between atoms: N_3  and  C_8
REMARK    5  A    between atoms: N_3  and  C_9
REMARK    6  A    between atoms: C_5  and  C_12
REMARK                            x       y       z     vdW  Elec       q    Type
REMARK                         _______ _______ _______ _____ _____    ______ ____
ROOT
ATOM      1  C   UNL     1      -5.471  -7.677  -8.747  0.00  0.00    +0.000 A 
ATOM      2  C   UNL     1      -4.774  -8.776  -8.243  0.00  0.00    +0.000 A 
ATOM      3  C   UNL     1      -4.841  -6.794  -9.623  0.00  0.00    +0.000 A 
ATOM      4  C   UNL     1      -3.447  -8.990  -8.615  0.00  0.00    +0.000 A 
ATOM      5  C   UNL     1      -3.514  -7.009  -9.995  0.00  0.00    +0.000 A 
ATOM      6  C   UNL     1      -2.817  -8.107  -9.491  0.00  0.00    +0.000 A 
ATOM      7  H   UNL     1      -5.366  -5.930 -10.021  0.00  0.00    +0.000 HD
ATOM      8  H   UNL     1      -2.894  -9.843  -8.229  0.00  0.00    +0.000 HD
ATOM      9  H   UNL     1      -3.022  -6.320 -10.676  0.00  0.00    +0.000 HD
ATOM     10  H   UNL     1      -1.783  -8.274  -9.781  0.00  0.00    +0.000 HD
ENDROOT
BRANCH   2  12
ATOM     11  O   UNL     1      -6.087 -10.685  -7.680  0.00  0.00    +0.000 OA
ATOM     12  C   UNL     1      -5.404  -9.717  -7.326  0.00  0.00    +0.000 C 
BRANCH  12  13
ATOM     13  O   UNL     1      -5.143  -9.397  -6.022  0.00  0.00    +0.000 OA
BRANCH  13  14
ATOM     14  C   UNL     1      -6.255  -9.403  -5.122  0.00  0.00    +0.000 C 
ATOM     15  H   UNL     1      -7.143  -9.799  -5.624  0.00  0.00    +0.000 HD
ATOM     16  H   UNL     1      -6.443  -8.393  -4.745  0.00  0.00    +0.000 HD
ATOM     17  H   UNL     1      -6.008 -10.054  -4.279  0.00  0.00    +0.000 HD
ENDBRANCH  13  14
ENDBRANCH  12  13
ENDBRANCH   2  12
BRANCH   1  18
ATOM     18  N   UNL     1      -6.816  -7.442  -8.382  0.00  0.00    +0.000 N 
BRANCH  18  19
ATOM     19  C   UNL     1      -7.131  -6.575  -7.266  0.00  0.00    +0.000 C 
ATOM     20  H   UNL     1      -7.663  -5.679  -7.604  0.00  0.00    +0.000 HD
ATOM     21  H   UNL     1      -6.218  -6.264  -6.746  0.00  0.00    +0.000 HD
ATOM     22  H   UNL     1      -7.773  -7.082  -6.539  0.00  0.00    +0.000 HD
ENDBRANCH  18  19
BRANCH  18  23
ATOM     23  C   UNL     1      -7.894  -8.054  -9.130  0.00  0.00    +0.000 C 
ATOM     24  H   UNL     1      -8.799  -8.104  -8.515  0.00  0.00    +0.000 HD
ATOM     25  H   UNL     1      -7.659  -9.081  -9.432  0.00  0.00    +0.000 HD
ATOM     26  H   UNL     1      -8.132  -7.464 -10.021  0.00  0.00    +0.000 HD
ENDBRANCH  18  23
ENDBRANCH   1  18
TORSDOF 6
ENDMDL
MODEL 10
REMARK VINA RESULT:    -3.664     26.853     28.629
REMARK INTER + INTRA:          -4.860
REMARK INTER:                  -4.628
REMARK INTRA:                  -0.232
REMARK UNBOUND:                -0.232
REMARK  Name = 82336
REMARK  6 active torsions:
REMARK  status: ('A' for Active; 'I' for Inactive)
REMARK    1  A    between atoms: O_1  and  C_12
REMARK    2  A    between atoms: O_1  and  C_13
REMARK    3  A    between atoms: N_3  and  C_4
REMARK    4  A    between atoms: N_3  and  C_8
REMARK    5  A    between atoms: N_3  and  C_9
REMARK    6  A    between atoms: C_5  and  C_12
REMARK                            x       y       z     vdW  Elec       q    Type
REMARK                         _______ _______ _______ _____ _____    ______ ____
ROOT
ATOM      1  C   UNL     1       8.876  12.990  -4.200  0.00  0.00    +0.000 A 
ATOM      2  C   UNL     1       7.803  13.853  -3.976  0.00  0.00    +0.000 A 
ATOM      3  C   UNL     1       9.216  12.035  -3.242  0.00  0.00    +0.000 A 
ATOM      4  C   UNL     1       7.071  13.761  -2.793  0.00  0.00    +0.000 A 
ATOM      5  C   UNL     1       8.483  11.943  -2.059  0.00  0.00    +0.000 A 
ATOM      6  C   UNL     1       7.411  12.807  -1.834  0.00  0.00    +0.000 A 
ATOM      7  H   UNL     1      10.052  11.358  -3.397  0.00  0.00    +0.000 HD
ATOM      8  H   UNL     1       6.233  14.428  -2.606  0.00  0.00    +0.000 HD
ATOM      9  H   UNL     1       8.749  11.201  -1.311  0.00  0.00    +0.000 HD
ATOM     10  H   UNL     1       6.840  12.735  -0.912  0.00  0.00    +0.000 HD
ENDROOT
BRANCH   2  12
ATOM     11  O   UNL     1       7.915  15.994  -5.021  0.00  0.00    +0.000 OA
ATOM     12  C   UNL     1       7.423  14.861  -4.957  0.00  0.00    +0.000 C 
BRANCH  12  13
ATOM     13  O   UNL     1       6.454  14.396  -5.802  0.00  0.00    +0.000 OA
BRANCH  13  14
ATOM     14  C   UNL     1       6.517  14.838  -7.161  0.00  0.00    +0.000 C 
ATOM     15  H   UNL     1       5.632  15.434  -7.404  0.00  0.00    +0.000 HD
ATOM     16  H   UNL     1       6.601  13.980  -7.835  0.00  0.00    +0.000 HD
ATOM     17  H   UNL     1       7.405  15.464  -7.276  0.00  0.00    +0.000 HD
ENDBRANCH  13  14
ENDBRANCH  12  13
ENDBRANCH   2  12
BRANCH   1  18
ATOM     18  N   UNL     1       9.631  13.066  -5.392  0.00  0.00    +0.000 N 
BRANCH  18  19
ATOM     19  C   UNL     1      10.815  13.897  -5.457  0.00  0.00    +0.000 C 
ATOM     20  H   UNL     1      11.511  13.528  -6.219  0.00  0.00    +0.000 HD
ATOM     21  H   UNL     1      11.331  13.914  -4.491  0.00  0.00    +0.000 HD
ATOM     22  H   UNL     1      10.562  14.929  -5.718  0.00  0.00    +0.000 HD
ENDBRANCH  18  19
BRANCH  18  23
ATOM     23  C   UNL     1       9.236  12.303  -6.558  0.00  0.00    +0.000 C 
ATOM     24  H   UNL     1      10.059  11.654  -6.880  0.00  0.00    +0.000 HD
ATOM     25  H   UNL     1       8.987  12.945  -7.410  0.00  0.00    +0.000 HD
ATOM     26  H   UNL     1       8.379  11.661  -6.330  0.00  0.00    +0.000 HD
ENDBRANCH  18  23
ENDBRANCH   1  18
TORSDOF 6
ENDMDL
