MODEL 1
REMARK VINA RESULT:    -3.752      0.000      0.000
REMARK INTER + INTRA:          -4.642
REMARK INTER:                  -4.569
REMARK INTRA:                  -0.073
REMARK UNBOUND:                -0.013
REMARK  Name = 12180
REMARK  5 active torsions:
REMARK  status: ('A' for Active; 'I' for Inactive)
REMARK    1  A    between atoms: O_1  and  C_6
REMARK    2  A    between atoms: O_1  and  C_7
REMARK    3  A    between atoms: C_3  and  C_4
REMARK    4  A    between atoms: C_3  and  C_5
REMARK    5  A    between atoms: C_4  and  C_6
REMARK                            x       y       z     vdW  Elec       q    Type
REMARK                         _______ _______ _______ _____ _____    ______ ____
ROOT
ATOM      1  C   UNL     1       1.801  -4.175  15.629  0.00  0.00    +0.000 C 
ATOM      2  H   UNL     1       0.999  -4.061  16.369  0.00  0.00    +0.000 HD
ATOM      3  H   UNL     1       2.707  -4.523  16.137  0.00  0.00    +0.000 HD
ENDROOT
BRANCH   1   4
ATOM      4  C   UNL     1       2.073  -2.837  14.949  0.00  0.00    +0.000 C 
ATOM      5  H   UNL     1       1.572  -2.804  13.974  0.00  0.00    +0.000 HD
ATOM      6  H   UNL     1       1.651  -2.020  15.549  0.00  0.00    +0.000 HD
BRANCH   4   7
ATOM      7  C   UNL     1       3.561  -2.600  14.759  0.00  0.00    +0.000 C 
ATOM      8  H   UNL     1       3.821  -2.649  13.698  0.00  0.00    +0.000 HD
ATOM      9  H   UNL     1       3.852  -1.613  15.134  0.00  0.00    +0.000 HD
ATOM     10  H   UNL     1       4.149  -3.356  15.289  0.00  0.00    +0.000 HD
ENDBRANCH   4   7
ENDBRANCH   1   4
BRANCH   1  12
ATOM     11  O   UNL     1       2.027  -5.598  13.669  0.00  0.00    +0.000 OA
ATOM     12  C   UNL     1       1.376  -5.238  14.641  0.00  0.00    +0.000 C 
BRANCH  12  13
ATOM     13  O   UNL     1       0.156  -5.726  15.012  0.00  0.00    +0.000 OA
BRANCH  13  14
ATOM     14  C   UNL     1      -0.126  -5.679  16.414  0.00  0.00    +0.000 C 
ATOM     15  H   UNL     1      -0.878  -4.912  16.624  0.00  0.00    +0.000 HD
ATOM     16  H   UNL     1       0.796  -5.417  16.938  0.00  0.00    +0.000 HD
ATOM     17  H   UNL     1      -0.464  -6.658  16.765  0.00  0.00    +0.000 HD
ENDBRANCH  13  14
ENDBRANCH  12  13
ENDBRANCH   1  12
TORSDOF 5
ENDMDL
MODEL 2
REMARK VINA RESULT:    -3.364      1.861      3.729
REMARK INTER + INTRA:          -4.163
REMARK INTER:                  -4.107
REMARK INTRA:                  -0.056
REMARK UNBOUND:                -0.013
REMARK  Name = 12180
REMARK  5 active torsions:
REMARK  status: ('A' for Active; 'I' for Inactive)
REMARK    1  A    between atoms: O_1  and  C_6
REMARK    2  A    between atoms: O_1  and  C_7
REMARK    3  A    between atoms: C_3  and  C_4
REMARK    4  A    between atoms: C_3  and  C_5
REMARK    5  A    between atoms: C_4  and  C_6
REMARK                            x       y       z     vdW  Elec       q    Type
REMARK                         _______ _______ _______ _____ _____    ______ ____
ROOT
ATOM      1  C   UNL     1       0.314  -6.265  15.269  0.00  0.00    +0.000 C 
ATOM      2  H   UNL     1      -0.263  -6.503  14.368  0.00  0.00    +0.000 HD
ATOM      3  H   UNL     1       1.033  -7.070  15.455  0.00  0.00    +0.000 HD
ENDROOT
BRANCH   1   4
ATOM      4  C   UNL     1      -0.625  -6.127  16.464  0.00  0.00    +0.000 C 
ATOM      5  H   UNL     1      -0.529  -5.126  16.901  0.00  0.00    +0.000 HD
ATOM      6  H   UNL     1      -1.666  -6.230  16.135  0.00  0.00    +0.000 HD
BRANCH   4   7
ATOM      7  C   UNL     1      -0.331  -7.171  17.528  0.00  0.00    +0.000 C 
ATOM      8  H   UNL     1      -1.222  -7.356  18.135  0.00  0.00    +0.000 HD
ATOM      9  H   UNL     1      -0.027  -8.120  17.073  0.00  0.00    +0.000 HD
ATOM     10  H   UNL     1       0.472  -6.837  18.194  0.00  0.00    +0.000 HD
ENDBRANCH   4   7
ENDBRANCH   1   4
BRANCH   1  12
ATOM     11  O   UNL     1       0.949  -3.942  15.619  0.00  0.00    +0.000 OA
ATOM     12  C   UNL     1       1.088  -4.993  15.006  0.00  0.00    +0.000 C 
BRANCH  12  13
ATOM     13  O   UNL     1       1.962  -5.210  13.979  0.00  0.00    +0.000 OA
BRANCH  13  14
ATOM     14  C   UNL     1       2.454  -6.549  13.862  0.00  0.00    +0.000 C 
ATOM     15  H   UNL     1       3.544  -6.544  13.755  0.00  0.00    +0.000 HD
ATOM     16  H   UNL     1       2.016  -6.995  12.966  0.00  0.00    +0.000 HD
ATOM     17  H   UNL     1       2.153  -7.140  14.732  0.00  0.00    +0.000 HD
ENDBRANCH  13  14
ENDBRANCH  12  13
ENDBRANCH   1  12
TORSDOF 5
ENDMDL
MODEL 3
REMARK VINA RESULT:    -3.317      1.425      3.556
REMARK INTER + INTRA:          -4.106
REMARK INTER:                  -4.064
REMARK INTRA:                  -0.042
REMARK UNBOUND:                -0.013
REMARK  Name = 12180
REMARK  5 active torsions:
REMARK  status: ('A' for Active; 'I' for Inactive)
REMARK    1  A    between atoms: O_1  and  C_6
REMARK    2  A    between atoms: O_1  and  C_7
REMARK    3  A    between atoms: C_3  and  C_4
REMARK    4  A    between atoms: C_3  and  C_5
REMARK    5  A    between atoms: C_4  and  C_6
REMARK                            x       y       z     vdW  Elec       q    Type
REMARK                         _______ _______ _______ _____ _____    ______ ____
ROOT
ATOM      1  C   UNL     1       1.566  -5.238  16.308  0.00  0.00    +0.000 C 
ATOM      2  H   UNL     1       1.989  -6.247  16.244  0.00  0.00    +0.000 HD
ATOM      3  H   UNL     1       1.890  -4.774  17.246  0.00  0.00    +0.000 HD
ENDROOT
BRANCH   1   4
ATOM      4  C   UNL     1       0.042  -5.313  16.270  0.00  0.00    +0.000 C 
ATOM      5  H   UNL     1      -0.371  -5.005  17.238  0.00  0.00    +0.000 HD
ATOM      6  H   UNL     1      -0.349  -4.612  15.522  0.00  0.00    +0.000 HD
BRANCH   4   7
ATOM      7  C   UNL     1      -0.439  -6.716  15.941  0.00  0.00    +0.000 C 
ATOM      8  H   UNL     1      -1.509  -6.809  16.151  0.00  0.00    +0.000 HD
ATOM      9  H   UNL     1      -0.280  -6.947  14.882  0.00  0.00    +0.000 HD
ATOM     10  H   UNL     1       0.091  -7.463  16.539  0.00  0.00    +0.000 HD
ENDBRANCH   4   7
ENDBRANCH   1   4
BRANCH   1  12
ATOM     11  O   UNL     1       2.140  -4.776  13.989  0.00  0.00    +0.000 OA
ATOM     12  C   UNL     1       2.123  -4.424  15.161  0.00  0.00    +0.000 C 
BRANCH  12  13
ATOM     13  O   UNL     1       2.597  -3.240  15.648  0.00  0.00    +0.000 OA
BRANCH  13  14
ATOM     14  C   UNL     1       3.526  -2.554  14.803  0.00  0.00    +0.000 C 
ATOM     15  H   UNL     1       3.564  -1.492  15.066  0.00  0.00    +0.000 HD
ATOM     16  H   UNL     1       3.180  -2.647  13.771  0.00  0.00    +0.000 HD
ATOM     17  H   UNL     1       4.518  -3.009  14.883  0.00  0.00    +0.000 HD
ENDBRANCH  13  14
ENDBRANCH  12  13
ENDBRANCH   1  12
TORSDOF 5
ENDMDL
MODEL 4
REMARK VINA RESULT:    -3.242     19.582     20.573
REMARK INTER + INTRA:          -4.013
REMARK INTER:                  -3.982
REMARK INTRA:                  -0.031
REMARK UNBOUND:                -0.013
REMARK  Name = 12180
REMARK  5 active torsions:
REMARK  status: ('A' for Active; 'I' for Inactive)
REMARK    1  A    between atoms: O_1  and  C_6
REMARK    2  A    between atoms: O_1  and  C_7
REMARK    3  A    between atoms: C_3  and  C_4
REMARK    4  A    between atoms: C_3  and  C_5
REMARK    5  A    between atoms: C_4  and  C_6
REMARK                            x       y       z     vdW  Elec       q    Type
REMARK                         _______ _______ _______ _____ _____    ______ ____
ROOT
ATOM      1  C   UNL     1      10.922  -8.926  -1.595  0.00  0.00    +0.000 C 
ATOM      2  H   UNL     1      11.654  -8.248  -1.141  0.00  0.00    +0.000 HD
ATOM      3  H   UNL     1      10.259  -8.348  -2.248  0.00  0.00    +0.000 HD
ENDROOT
BRANCH   1   4
ATOM      4  C   UNL     1      10.103  -9.609  -0.504  0.00  0.00    +0.000 C 
ATOM      5  H   UNL     1      10.115 -10.696  -0.653  0.00  0.00    +0.000 HD
ATOM      6  H   UNL     1      10.556  -9.420   0.477  0.00  0.00    +0.000 HD
BRANCH   4   7
ATOM      7  C   UNL     1       8.666  -9.117  -0.494  0.00  0.00    +0.000 C 
ATOM      8  H   UNL     1       8.295  -9.049   0.532  0.00  0.00    +0.000 HD
ATOM      9  H   UNL     1       8.588  -8.125  -0.950  0.00  0.00    +0.000 HD
ATOM     10  H   UNL     1       8.014  -9.802  -1.047  0.00  0.00    +0.000 HD
ENDBRANCH   4   7
ENDBRANCH   1   4
BRANCH   1  12
ATOM     11  O   UNL     1      11.187 -10.920  -2.964  0.00  0.00    +0.000 OA
ATOM     12  C   UNL     1      11.675  -9.922  -2.448  0.00  0.00    +0.000 C 
BRANCH  12  13
ATOM     13  O   UNL     1      12.977  -9.526  -2.548  0.00  0.00    +0.000 OA
BRANCH  13  14
ATOM     14  C   UNL     1      13.678  -9.994  -3.704  0.00  0.00    +0.000 C 
ATOM     15  H   UNL     1      14.728 -10.182  -3.460  0.00  0.00    +0.000 HD
ATOM     16  H   UNL     1      13.631  -9.215  -4.469  0.00  0.00    +0.000 HD
ATOM     17  H   UNL     1      13.203 -10.899  -4.094  0.00  0.00    +0.000 HD
ENDBRANCH  13  14
ENDBRANCH  12  13
ENDBRANCH   1  12
TORSDOF 5
ENDMDL
MODEL 5
REMARK VINA RESULT:    -3.173     18.972     19.791
REMARK INTER + INTRA:          -3.928
REMARK INTER:                  -3.870
REMARK INTRA:                  -0.058
REMARK UNBOUND:                -0.013
REMARK  Name = 12180
REMARK  5 active torsions:
REMARK  status: ('A' for Active; 'I' for Inactive)
REMARK    1  A    between atoms: O_1  and  C_6
REMARK    2  A    between atoms: O_1  and  C_7
REMARK    3  A    between atoms: C_3  and  C_4
REMARK    4  A    between atoms: C_3  and  C_5
REMARK    5  A    between atoms: C_4  and  C_6
REMARK                            x       y       z     vdW  Elec       q    Type
REMARK                         _______ _______ _______ _____ _____    ______ ____
ROOT
ATOM      1  C   UNL     1      11.103  -9.011  -1.792  0.00  0.00    +0.000 C 
ATOM      2  H   UNL     1      10.418  -8.455  -2.443  0.00  0.00    +0.000 HD
ATOM      3  H   UNL     1      11.700  -8.299  -1.212  0.00  0.00    +0.000 HD
ENDROOT
BRANCH   1   4
ATOM      4  C   UNL     1      12.024  -9.886  -2.637  0.00  0.00    +0.000 C 
ATOM      5  H   UNL     1      13.047  -9.841  -2.244  0.00  0.00    +0.000 HD
ATOM      6  H   UNL     1      11.707 -10.935  -2.573  0.00  0.00    +0.000 HD
BRANCH   4   7
ATOM      7  C   UNL     1      12.024  -9.452  -4.093  0.00  0.00    +0.000 C 
ATOM      8  H   UNL     1      11.968 -10.326  -4.749  0.00  0.00    +0.000 HD
ATOM      9  H   UNL     1      11.165  -8.809  -4.311  0.00  0.00    +0.000 HD
ATOM     10  H   UNL     1      12.938  -8.901  -4.338  0.00  0.00    +0.000 HD
ENDBRANCH   4   7
ENDBRANCH   1   4
BRANCH   1  12
ATOM     11  O   UNL     1      10.135  -9.586   0.365  0.00  0.00    +0.000 OA
ATOM     12  C   UNL     1      10.272  -9.827  -0.827  0.00  0.00    +0.000 C 
BRANCH  12  13
ATOM     13  O   UNL     1       9.705 -10.869  -1.504  0.00  0.00    +0.000 OA
BRANCH  13  14
ATOM     14  C   UNL     1       8.543 -11.441  -0.894  0.00  0.00    +0.000 C 
ATOM     15  H   UNL     1       8.048 -10.701  -0.256  0.00  0.00    +0.000 HD
ATOM     16  H   UNL     1       8.864 -12.280  -0.272  0.00  0.00    +0.000 HD
ATOM     17  H   UNL     1       7.858 -11.813  -1.660  0.00  0.00    +0.000 HD
ENDBRANCH  13  14
ENDBRANCH  12  13
ENDBRANCH   1  12
TORSDOF 5
ENDMDL
MODEL 6
REMARK VINA RESULT:    -3.042     17.837     18.727
REMARK INTER + INTRA:          -3.766
REMARK INTER:                  -3.735
REMARK INTRA:                  -0.032
REMARK UNBOUND:                -0.013
REMARK  Name = 12180
REMARK  5 active torsions:
REMARK  status: ('A' for Active; 'I' for Inactive)
REMARK    1  A    between atoms: O_1  and  C_6
REMARK    2  A    between atoms: O_1  and  C_7
REMARK    3  A    between atoms: C_3  and  C_4
REMARK    4  A    between atoms: C_3  and  C_5
REMARK    5  A    between atoms: C_4  and  C_6
REMARK                            x       y       z     vdW  Elec       q    Type
REMARK                         _______ _______ _______ _____ _____    ______ ____
ROOT
ATOM      1  C   UNL     1     -13.467 -15.148   8.790  0.00  0.00    +0.000 C 
ATOM      2  H   UNL     1     -13.845 -14.562   7.944  0.00  0.00    +0.000 HD
ATOM      3  H   UNL     1     -14.054 -16.069   8.876  0.00  0.00    +0.000 HD
ENDROOT
BRANCH   1   4
ATOM      4  C   UNL     1     -13.591 -14.337  10.076  0.00  0.00    +0.000 C 
ATOM      5  H   UNL     1     -13.967 -14.974  10.886  0.00  0.00    +0.000 HD
ATOM      6  H   UNL     1     -12.603 -13.978  10.390  0.00  0.00    +0.000 HD
BRANCH   4   7
ATOM      7  C   UNL     1     -14.521 -13.148   9.899  0.00  0.00    +0.000 C 
ATOM      8  H   UNL     1     -15.077 -12.960  10.823  0.00  0.00    +0.000 HD
ATOM      9  H   UNL     1     -13.958 -12.243   9.651  0.00  0.00    +0.000 HD
ATOM     10  H   UNL     1     -15.245 -13.333   9.099  0.00  0.00    +0.000 HD
ENDBRANCH   4   7
ENDBRANCH   1   4
BRANCH   1  12
ATOM     11  O   UNL     1     -11.487 -16.560   8.856  0.00  0.00    +0.000 OA
ATOM     12  C   UNL     1     -12.033 -15.527   8.494  0.00  0.00    +0.000 C 
BRANCH  12  13
ATOM     13  O   UNL     1     -11.455 -14.530   7.761  0.00  0.00    +0.000 OA
BRANCH  13  14
ATOM     14  C   UNL     1     -10.294 -14.909   7.014  0.00  0.00    +0.000 C 
ATOM     15  H   UNL     1      -9.442 -15.051   7.685  0.00  0.00    +0.000 HD
ATOM     16  H   UNL     1     -10.060 -14.101   6.317  0.00  0.00    +0.000 HD
ATOM     17  H   UNL     1     -10.493 -15.820   6.442  0.00  0.00    +0.000 HD
ENDBRANCH  13  14
ENDBRANCH  12  13
ENDBRANCH   1  12
TORSDOF 5
ENDMDL
MODEL 7
REMARK VINA RESULT:    -2.985     15.515     16.443
REMARK INTER + INTRA:          -3.696
REMARK INTER:                  -3.615
REMARK INTRA:                  -0.081
REMARK UNBOUND:                -0.013
REMARK  Name = 12180
REMARK  5 active torsions:
REMARK  status: ('A' for Active; 'I' for Inactive)
REMARK    1  A    between atoms: O_1  and  C_6
REMARK    2  A    between atoms: O_1  and  C_7
REMARK    3  A    between atoms: C_3  and  C_4
REMARK    4  A    between atoms: C_3  and  C_5
REMARK    5  A    between atoms: C_4  and  C_6
REMARK                            x       y       z     vdW  Elec       q    Type
REMARK                         _______ _______ _______ _____ _____    ______ ____
ROOT
ATOM      1  C   UNL     1       5.735 -12.380   0.962  0.00  0.00    +0.000 C 
ATOM      2  H   UNL     1       5.666 -11.333   1.281  0.00  0.00    +0.000 HD
ATOM      3  H   UNL     1       6.725 -12.768   1.225  0.00  0.00    +0.000 HD
ENDROOT
BRANCH   1   4
ATOM      4  C   UNL     1       5.531 -12.474  -0.547  0.00  0.00    +0.000 C 
ATOM      5  H   UNL     1       6.403 -12.063  -1.070  0.00  0.00    +0.000 HD
ATOM      6  H   UNL     1       5.449 -13.526  -0.849  0.00  0.00    +0.000 HD
BRANCH   4   7
ATOM      7  C   UNL     1       4.282 -11.728  -0.989  0.00  0.00    +0.000 C 
ATOM      8  H   UNL     1       3.568 -12.420  -1.444  0.00  0.00    +0.000 HD
ATOM      9  H   UNL     1       3.792 -11.246  -0.137  0.00  0.00    +0.000 HD
ATOM     10  H   UNL     1       4.527 -10.957  -1.727  0.00  0.00    +0.000 HD
ENDBRANCH   4   7
ENDBRANCH   1   4
BRANCH   1  12
ATOM     11  O   UNL     1       4.433 -14.351   1.539  0.00  0.00    +0.000 OA
ATOM     12  C   UNL     1       4.698 -13.171   1.726  0.00  0.00    +0.000 C 
BRANCH  12  13
ATOM     13  O   UNL     1       4.112 -12.356   2.651  0.00  0.00    +0.000 OA
BRANCH  13  14
ATOM     14  C   UNL     1       2.861 -12.815   3.173  0.00  0.00    +0.000 C 
ATOM     15  H   UNL     1       2.177 -13.063   2.355  0.00  0.00    +0.000 HD
ATOM     16  H   UNL     1       2.422 -12.006   3.763  0.00  0.00    +0.000 HD
ATOM     17  H   UNL     1       3.017 -13.680   3.824  0.00  0.00    +0.000 HD
ENDBRANCH  13  14
ENDBRANCH  12  13
ENDBRANCH   1  12
TORSDOF 5
ENDMDL
MODEL 8
REMARK VINA RESULT:    -2.957     15.195     15.871
REMARK INTER + INTRA:          -3.662
REMARK INTER:                  -3.621
REMARK INTRA:                  -0.041
REMARK UNBOUND:                -0.013
REMARK  Name = 12180
REMARK  5 active torsions:
REMARK  status: ('A' for Active; 'I' for Inactive)
REMARK    1  A    between atoms: O_1  and  C_6
REMARK    2  A    between atoms: O_1  and  C_7
REMARK    3  A    between atoms: C_3  and  C_4
REMARK    4  A    between atoms: C_3  and  C_5
REMARK    5  A    between atoms: C_4  and  C_6
REMARK                            x       y       z     vdW  Elec       q    Type
REMARK                         _______ _______ _______ _____ _____    ______ ____
ROOT
ATOM      1  C   UNL     1      -5.797 -12.759   5.367  0.00  0.00    +0.000 C 
ATOM      2  H   UNL     1      -4.739 -12.814   5.082  0.00  0.00    +0.000 HD
ATOM      3  H   UNL     1      -5.969 -11.830   5.920  0.00  0.00    +0.000 HD
ENDROOT
BRANCH   1   4
ATOM      4  C   UNL     1      -6.158 -13.955   6.244  0.00  0.00    +0.000 C 
ATOM      5  H   UNL     1      -6.555 -14.768   5.623  0.00  0.00    +0.000 HD
ATOM      6  H   UNL     1      -5.259 -14.343   6.737  0.00  0.00    +0.000 HD
BRANCH   4   7
ATOM      7  C   UNL     1      -7.185 -13.581   7.299  0.00  0.00    +0.000 C 
ATOM      8  H   UNL     1      -7.363 -12.502   7.291  0.00  0.00    +0.000 HD
ATOM      9  H   UNL     1      -8.140 -14.084   7.113  0.00  0.00    +0.000 HD
ATOM     10  H   UNL     1      -6.839 -13.862   8.299  0.00  0.00    +0.000 HD
ENDBRANCH   4   7
ENDBRANCH   1   4
BRANCH   1  12
ATOM     11  O   UNL     1      -7.808 -12.423   4.040  0.00  0.00    +0.000 OA
ATOM     12  C   UNL     1      -6.621 -12.715   4.100  0.00  0.00    +0.000 C 
BRANCH  12  13
ATOM     13  O   UNL     1      -5.825 -13.051   3.042  0.00  0.00    +0.000 OA
BRANCH  13  14
ATOM     14  C   UNL     1      -5.371 -11.956   2.240  0.00  0.00    +0.000 C 
ATOM     15  H   UNL     1      -5.992 -11.073   2.418  0.00  0.00    +0.000 HD
ATOM     16  H   UNL     1      -5.463 -12.243   1.190  0.00  0.00    +0.000 HD
ATOM     17  H   UNL     1      -4.320 -11.741   2.455  0.00  0.00    +0.000 HD
ENDBRANCH  13  14
ENDBRANCH  12  13
ENDBRANCH   1  12
TORSDOF 5
ENDMDL
MODEL 9
REMARK VINA RESULT:    -2.943     17.023     17.487
REMARK INTER + INTRA:          -3.644
REMARK INTER:                  -3.607
REMARK INTRA:                  -0.036
REMARK UNBOUND:                -0.013
REMARK  Name = 12180
REMARK  5 active torsions:
REMARK  status: ('A' for Active; 'I' for Inactive)
REMARK    1  A    between atoms: O_1  and  C_6
REMARK    2  A    between atoms: O_1  and  C_7
REMARK    3  A    between atoms: C_3  and  C_4
REMARK    4  A    between atoms: C_3  and  C_5
REMARK    5  A    between atoms: C_4  and  C_6
REMARK                            x       y       z     vdW  Elec       q    Type
REMARK                         _______ _______ _______ _____ _____    ______ ____
ROOT
ATOM      1  C   UNL     1     -15.042  -1.143  12.527  0.00  0.00    +0.000 C 
ATOM      2  H   UNL     1     -15.715  -1.993  12.692  0.00  0.00    +0.000 HD
ATOM      3  H   UNL     1     -14.055  -1.385  12.934  0.00  0.00    +0.000 HD
ENDROOT
BRANCH   1   4
ATOM      4  C   UNL     1     -15.596   0.097  13.222  0.00  0.00    +0.000 C 
ATOM      5  H   UNL     1     -15.241   1.001  12.713  0.00  0.00    +0.000 HD
ATOM      6  H   UNL     1     -16.691   0.106  13.155  0.00  0.00    +0.000 HD
BRANCH   4   7
ATOM      7  C   UNL     1     -15.184   0.148  14.683  0.00  0.00    +0.000 C 
ATOM      8  H   UNL     1     -14.633  -0.757  14.954  0.00  0.00    +0.000 HD
ATOM      9  H   UNL     1     -14.537   1.010  14.879  0.00  0.00    +0.000 HD
ATOM     10  H   UNL     1     -16.060   0.222  15.336  0.00  0.00    +0.000 HD
ENDBRANCH   4   7
ENDBRANCH   1   4
BRANCH   1  12
ATOM     11  O   UNL     1     -14.778  -1.837  10.210  0.00  0.00    +0.000 OA
ATOM     12  C   UNL     1     -14.901  -0.941  11.035  0.00  0.00    +0.000 C 
BRANCH  12  13
ATOM     13  O   UNL     1     -14.934   0.397  10.764  0.00  0.00    +0.000 OA
BRANCH  13  14
ATOM     14  C   UNL     1     -13.727   0.948  10.229  0.00  0.00    +0.000 C 
ATOM     15  H   UNL     1     -13.590   0.625   9.192  0.00  0.00    +0.000 HD
ATOM     16  H   UNL     1     -12.890   0.575  10.825  0.00  0.00    +0.000 HD
ATOM     17  H   UNL     1     -13.747   2.039  10.295  0.00  0.00    +0.000 HD
ENDBRANCH  13  14
ENDBRANCH  12  13
ENDBRANCH   1  12
TORSDOF 5
ENDMDL
MODEL 10
REMARK VINA RESULT:    -2.820     17.059     17.810
REMARK INTER + INTRA:          -3.493
REMARK INTER:                  -3.480
REMARK INTRA:                  -0.013
REMARK UNBOUND:                -0.013
REMARK  Name = 12180
REMARK  5 active torsions:
REMARK  status: ('A' for Active; 'I' for Inactive)
REMARK    1  A    between atoms: O_1  and  C_6
REMARK    2  A    between atoms: O_1  and  C_7
REMARK    3  A    between atoms: C_3  and  C_4
REMARK    4  A    between atoms: C_3  and  C_5
REMARK    5  A    between atoms: C_4  and  C_6
REMARK                            x       y       z     vdW  Elec       q    Type
REMARK                         _______ _______ _______ _____ _____    ______ ____
ROOT
ATOM      1  C   UNL     1       8.414 -10.394  -0.532  0.00  0.00    +0.000 C 
ATOM      2  H   UNL     1       8.016 -10.194  -1.533  0.00  0.00    +0.000 HD
ATOM      3  H   UNL     1       8.060  -9.618   0.155  0.00  0.00    +0.000 HD
ENDROOT
BRANCH   1   4
ATOM      4  C   UNL     1       9.940 -10.387  -0.572  0.00  0.00    +0.000 C 
ATOM      5  H   UNL     1      10.341 -10.704   0.399  0.00  0.00    +0.000 HD
ATOM      6  H   UNL     1      10.298 -11.112  -1.313  0.00  0.00    +0.000 HD
BRANCH   4   7
ATOM      7  C   UNL     1      10.483  -9.010  -0.915  0.00  0.00    +0.000 C 
ATOM      8  H   UNL     1      11.546  -9.074  -1.168  0.00  0.00    +0.000 HD
ATOM      9  H   UNL     1       9.955  -8.584  -1.774  0.00  0.00    +0.000 HD
ATOM     10  H   UNL     1      10.375  -8.324  -0.070  0.00  0.00    +0.000 HD
ENDBRANCH   4   7
ENDBRANCH   1   4
BRANCH   1  12
ATOM     11  O   UNL     1       8.028 -12.793  -0.639  0.00  0.00    +0.000 OA
ATOM     12  C   UNL     1       7.865 -11.724  -0.067  0.00  0.00    +0.000 C 
BRANCH  12  13
ATOM     13  O   UNL     1       7.164 -11.533   1.089  0.00  0.00    +0.000 OA
BRANCH  13  14
ATOM     14  C   UNL     1       6.398 -12.656   1.538  0.00  0.00    +0.000 C 
ATOM     15  H   UNL     1       7.041 -13.536   1.641  0.00  0.00    +0.000 HD
ATOM     16  H   UNL     1       5.633 -12.867   0.788  0.00  0.00    +0.000 HD
ATOM     17  H   UNL     1       5.905 -12.422   2.487  0.00  0.00    +0.000 HD
ENDBRANCH  13  14
ENDBRANCH  12  13
ENDBRANCH   1  12
TORSDOF 5
ENDMDL
