MODEL 1
REMARK VINA RESULT:    -5.071      0.000      0.000
REMARK INTER + INTRA:          -6.319
REMARK INTER:                  -6.012
REMARK INTRA:                  -0.307
REMARK UNBOUND:                -0.359
REMARK  Name = 4133
REMARK  4 active torsions:
REMARK  status: ('A' for Active; 'I' for Inactive)
REMARK    1  A    between atoms: O_1  and  C_10
REMARK    2  A    between atoms: O_1  and  C_11
REMARK    3  A    between atoms: O_2  and  C_5
REMARK    4  A    between atoms: C_4  and  C_10
REMARK                            x       y       z     vdW  Elec       q    Type
REMARK                         _______ _______ _______ _____ _____    ______ ____
ROOT
ATOM      1  C   UNL     1       9.247 -10.774  -0.904  0.00  0.00    +0.000 A 
ATOM      2  C   UNL     1       9.321  -9.476  -0.399  0.00  0.00    +0.000 A 
ATOM      3  C   UNL     1      10.143 -11.192  -1.887  0.00  0.00    +0.000 A 
ATOM      4  C   UNL     1      10.290  -8.595  -0.879  0.00  0.00    +0.000 A 
ATOM      5  C   UNL     1      11.113 -10.312  -2.368  0.00  0.00    +0.000 A 
ATOM      6  C   UNL     1      11.186  -9.013  -1.864  0.00  0.00    +0.000 A 
ATOM      7  H   UNL     1      10.121 -12.202  -2.290  0.00  0.00    +0.000 HD
ATOM      8  H   UNL     1      10.359  -7.581  -0.497  0.00  0.00    +0.000 HD
ATOM      9  H   UNL     1      11.812 -10.638  -3.131  0.00  0.00    +0.000 HD
ATOM     10  H   UNL     1      11.942  -8.328  -2.238  0.00  0.00    +0.000 HD
ENDROOT
BRANCH   2  11
ATOM     11  O   UNL     1       8.454  -9.047   0.562  0.00  0.00    +0.000 OA
ATOM     12  H   UNL     1       8.532  -8.083   0.653  0.00  0.00    +0.000 HD
ENDBRANCH   2  11
BRANCH   1  14
ATOM     13  O   UNL     1       8.500 -12.797   0.114  0.00  0.00    +0.000 OA
ATOM     14  C   UNL     1       8.243 -11.709  -0.415  0.00  0.00    +0.000 C 
BRANCH  14  15
ATOM     15  O   UNL     1       6.976 -11.233  -0.614  0.00  0.00    +0.000 OA
BRANCH  15  16
ATOM     16  C   UNL     1       5.903 -12.165  -0.447  0.00  0.00    +0.000 C 
ATOM     17  H   UNL     1       6.258 -13.061   0.073  0.00  0.00    +0.000 HD
ATOM     18  H   UNL     1       5.477 -12.428  -1.420  0.00  0.00    +0.000 HD
ATOM     19  H   UNL     1       5.130 -11.689   0.160  0.00  0.00    +0.000 HD
ENDBRANCH  15  16
ENDBRANCH  14  15
ENDBRANCH   1  14
TORSDOF 4
ENDMDL
MODEL 2
REMARK VINA RESULT:    -4.874      2.814      6.095
REMARK INTER + INTRA:          -6.088
REMARK INTER:                  -5.753
REMARK INTRA:                  -0.335
REMARK UNBOUND:                -0.359
REMARK  Name = 4133
REMARK  4 active torsions:
REMARK  status: ('A' for Active; 'I' for Inactive)
REMARK    1  A    between atoms: O_1  and  C_10
REMARK    2  A    between atoms: O_1  and  C_11
REMARK    3  A    between atoms: O_2  and  C_5
REMARK    4  A    between atoms: C_4  and  C_10
REMARK                            x       y       z     vdW  Elec       q    Type
REMARK                         _______ _______ _______ _____ _____    ______ ____
ROOT
ATOM      1  C   UNL     1       4.792 -12.401   0.706  0.00  0.00    +0.000 A 
ATOM      2  C   UNL     1       3.765 -11.543   0.313  0.00  0.00    +0.000 A 
ATOM      3  C   UNL     1       4.769 -12.982   1.973  0.00  0.00    +0.000 A 
ATOM      4  C   UNL     1       2.715 -11.265   1.188  0.00  0.00    +0.000 A 
ATOM      5  C   UNL     1       3.719 -12.705   2.849  0.00  0.00    +0.000 A 
ATOM      6  C   UNL     1       2.693 -11.846   2.457  0.00  0.00    +0.000 A 
ATOM      7  H   UNL     1       5.546 -13.666   2.304  0.00  0.00    +0.000 HD
ATOM      8  H   UNL     1       1.909 -10.598   0.897  0.00  0.00    +0.000 HD
ATOM      9  H   UNL     1       3.700 -13.159   3.835  0.00  0.00    +0.000 HD
ATOM     10  H   UNL     1       1.874 -11.631   3.139  0.00  0.00    +0.000 HD
ENDROOT
BRANCH   2  11
ATOM     11  O   UNL     1       3.769 -10.964  -0.921  0.00  0.00    +0.000 OA
ATOM     12  H   UNL     1       3.916 -10.008  -0.823  0.00  0.00    +0.000 HD
ENDBRANCH   2  11
BRANCH   1  14
ATOM     13  O   UNL     1       6.249 -13.847  -0.506  0.00  0.00    +0.000 OA
ATOM     14  C   UNL     1       5.896 -12.704  -0.193  0.00  0.00    +0.000 C 
BRANCH  14  15
ATOM     15  O   UNL     1       6.498 -11.564  -0.651  0.00  0.00    +0.000 OA
BRANCH  15  16
ATOM     16  C   UNL     1       7.778 -11.243  -0.100  0.00  0.00    +0.000 C 
ATOM     17  H   UNL     1       7.667 -10.892   0.932  0.00  0.00    +0.000 HD
ATOM     18  H   UNL     1       8.274 -10.484  -0.713  0.00  0.00    +0.000 HD
ATOM     19  H   UNL     1       8.386 -12.150  -0.100  0.00  0.00    +0.000 HD
ENDBRANCH  15  16
ENDBRANCH  14  15
ENDBRANCH   1  14
TORSDOF 4
ENDMDL
MODEL 3
REMARK VINA RESULT:    -4.779      4.216      5.473
REMARK INTER + INTRA:          -5.975
REMARK INTER:                  -5.644
REMARK INTRA:                  -0.331
REMARK UNBOUND:                -0.359
REMARK  Name = 4133
REMARK  4 active torsions:
REMARK  status: ('A' for Active; 'I' for Inactive)
REMARK    1  A    between atoms: O_1  and  C_10
REMARK    2  A    between atoms: O_1  and  C_11
REMARK    3  A    between atoms: O_2  and  C_5
REMARK    4  A    between atoms: C_4  and  C_10
REMARK                            x       y       z     vdW  Elec       q    Type
REMARK                         _______ _______ _______ _____ _____    ______ ____
ROOT
ATOM      1  C   UNL     1       4.775 -12.378   1.095  0.00  0.00    +0.000 A 
ATOM      2  C   UNL     1       6.042 -12.406   1.678  0.00  0.00    +0.000 A 
ATOM      3  C   UNL     1       4.612 -12.759  -0.237  0.00  0.00    +0.000 A 
ATOM      4  C   UNL     1       7.146 -12.814   0.930  0.00  0.00    +0.000 A 
ATOM      5  C   UNL     1       5.716 -13.167  -0.986  0.00  0.00    +0.000 A 
ATOM      6  C   UNL     1       6.982 -13.194  -0.403  0.00  0.00    +0.000 A 
ATOM      7  H   UNL     1       3.637 -12.762  -0.716  0.00  0.00    +0.000 HD
ATOM      8  H   UNL     1       8.138 -12.841   1.371  0.00  0.00    +0.000 HD
ATOM      9  H   UNL     1       5.589 -13.466  -2.022  0.00  0.00    +0.000 HD
ATOM     10  H   UNL     1       7.842 -13.514  -0.986  0.00  0.00    +0.000 HD
ENDROOT
BRANCH   2  11
ATOM     11  O   UNL     1       6.223 -12.038   2.978  0.00  0.00    +0.000 OA
ATOM     12  H   UNL     1       6.070 -12.807   3.551  0.00  0.00    +0.000 HD
ENDBRANCH   2  11
BRANCH   1  14
ATOM     13  O   UNL     1       2.761 -11.153   1.453  0.00  0.00    +0.000 OA
ATOM     14  C   UNL     1       3.610 -11.956   1.859  0.00  0.00    +0.000 C 
BRANCH  14  15
ATOM     15  O   UNL     1       3.569 -12.560   3.086  0.00  0.00    +0.000 OA
BRANCH  15  16
ATOM     16  C   UNL     1       2.848 -13.793   3.175  0.00  0.00    +0.000 C 
ATOM     17  H   UNL     1       2.796 -14.125   4.216  0.00  0.00    +0.000 HD
ATOM     18  H   UNL     1       3.324 -14.554   2.550  0.00  0.00    +0.000 HD
ATOM     19  H   UNL     1       1.833 -13.620   2.809  0.00  0.00    +0.000 HD
ENDBRANCH  15  16
ENDBRANCH  14  15
ENDBRANCH   1  14
TORSDOF 4
ENDMDL
MODEL 4
REMARK VINA RESULT:    -4.769      3.082      6.506
REMARK INTER + INTRA:          -5.964
REMARK INTER:                  -5.646
REMARK INTRA:                  -0.318
REMARK UNBOUND:                -0.359
REMARK  Name = 4133
REMARK  4 active torsions:
REMARK  status: ('A' for Active; 'I' for Inactive)
REMARK    1  A    between atoms: O_1  and  C_10
REMARK    2  A    between atoms: O_1  and  C_11
REMARK    3  A    between atoms: O_2  and  C_5
REMARK    4  A    between atoms: C_4  and  C_10
REMARK                            x       y       z     vdW  Elec       q    Type
REMARK                         _______ _______ _______ _____ _____    ______ ____
ROOT
ATOM      1  C   UNL     1       4.499 -12.498   0.904  0.00  0.00    +0.000 A 
ATOM      2  C   UNL     1       4.505 -13.239   2.085  0.00  0.00    +0.000 A 
ATOM      3  C   UNL     1       3.507 -11.542   0.686  0.00  0.00    +0.000 A 
ATOM      4  C   UNL     1       3.518 -13.027   3.048  0.00  0.00    +0.000 A 
ATOM      5  C   UNL     1       2.519 -11.329   1.648  0.00  0.00    +0.000 A 
ATOM      6  C   UNL     1       2.525 -12.072   2.828  0.00  0.00    +0.000 A 
ATOM      7  H   UNL     1       3.482 -10.938  -0.218  0.00  0.00    +0.000 HD
ATOM      8  H   UNL     1       3.510 -13.597   3.972  0.00  0.00    +0.000 HD
ATOM      9  H   UNL     1       1.748 -10.584   1.478  0.00  0.00    +0.000 HD
ATOM     10  H   UNL     1       1.756 -11.905   3.578  0.00  0.00    +0.000 HD
ENDROOT
BRANCH   2  11
ATOM     11  O   UNL     1       5.465 -14.178   2.318  0.00  0.00    +0.000 OA
ATOM     12  H   UNL     1       6.331 -13.819   2.061  0.00  0.00    +0.000 HD
ENDBRANCH   2  11
BRANCH   1  14
ATOM     13  O   UNL     1       5.304 -13.177  -1.235  0.00  0.00    +0.000 OA
ATOM     14  C   UNL     1       5.520 -12.704  -0.113  0.00  0.00    +0.000 C 
BRANCH  14  15
ATOM     15  O   UNL     1       6.753 -12.307   0.327  0.00  0.00    +0.000 OA
BRANCH  15  16
ATOM     16  C   UNL     1       7.445 -11.343  -0.473  0.00  0.00    +0.000 C 
ATOM     17  H   UNL     1       6.804 -10.474  -0.655  0.00  0.00    +0.000 HD
ATOM     18  H   UNL     1       7.761 -11.794  -1.418  0.00  0.00    +0.000 HD
ATOM     19  H   UNL     1       8.331 -11.017   0.077  0.00  0.00    +0.000 HD
ENDBRANCH  15  16
ENDBRANCH  14  15
ENDBRANCH   1  14
TORSDOF 4
ENDMDL
MODEL 5
REMARK VINA RESULT:    -4.752      2.538      4.028
REMARK INTER + INTRA:          -5.944
REMARK INTER:                  -5.669
REMARK INTRA:                  -0.275
REMARK UNBOUND:                -0.359
REMARK  Name = 4133
REMARK  4 active torsions:
REMARK  status: ('A' for Active; 'I' for Inactive)
REMARK    1  A    between atoms: O_1  and  C_10
REMARK    2  A    between atoms: O_1  and  C_11
REMARK    3  A    between atoms: O_2  and  C_5
REMARK    4  A    between atoms: C_4  and  C_10
REMARK                            x       y       z     vdW  Elec       q    Type
REMARK                         _______ _______ _______ _____ _____    ______ ____
ROOT
ATOM      1  C   UNL     1      10.355 -10.343  -1.743  0.00  0.00    +0.000 A 
ATOM      2  C   UNL     1       9.994  -9.295  -0.897  0.00  0.00    +0.000 A 
ATOM      3  C   UNL     1       9.584 -11.504  -1.784  0.00  0.00    +0.000 A 
ATOM      4  C   UNL     1       8.862  -9.409  -0.090  0.00  0.00    +0.000 A 
ATOM      5  C   UNL     1       8.452 -11.619  -0.977  0.00  0.00    +0.000 A 
ATOM      6  C   UNL     1       8.091 -10.571  -0.130  0.00  0.00    +0.000 A 
ATOM      7  H   UNL     1       9.830 -12.333  -2.443  0.00  0.00    +0.000 HD
ATOM      8  H   UNL     1       8.569  -8.601   0.575  0.00  0.00    +0.000 HD
ATOM      9  H   UNL     1       7.850 -12.522  -1.011  0.00  0.00    +0.000 HD
ATOM     10  H   UNL     1       7.208 -10.660   0.497  0.00  0.00    +0.000 HD
ENDROOT
BRANCH   2  11
ATOM     11  O   UNL     1      10.734  -8.152  -0.842  0.00  0.00    +0.000 OA
ATOM     12  H   UNL     1      11.677  -8.384  -0.821  0.00  0.00    +0.000 HD
ENDBRANCH   2  11
BRANCH   1  14
ATOM     13  O   UNL     1      12.528  -9.558  -2.334  0.00  0.00    +0.000 OA
ATOM     14  C   UNL     1      11.533 -10.244  -2.594  0.00  0.00    +0.000 C 
BRANCH  14  15
ATOM     15  O   UNL     1      11.402 -11.008  -3.722  0.00  0.00    +0.000 OA
BRANCH  15  16
ATOM     16  C   UNL     1      11.829 -10.419  -4.954  0.00  0.00    +0.000 C 
ATOM     17  H   UNL     1      12.278 -11.180  -5.601  0.00  0.00    +0.000 HD
ATOM     18  H   UNL     1      12.539  -9.610  -4.759  0.00  0.00    +0.000 HD
ATOM     19  H   UNL     1      10.950 -10.005  -5.455  0.00  0.00    +0.000 HD
ENDBRANCH  15  16
ENDBRANCH  14  15
ENDBRANCH   1  14
TORSDOF 4
ENDMDL
MODEL 6
REMARK VINA RESULT:    -4.642     17.229     18.723
REMARK INTER + INTRA:          -5.815
REMARK INTER:                  -5.458
REMARK INTRA:                  -0.357
REMARK UNBOUND:                -0.359
REMARK  Name = 4133
REMARK  4 active torsions:
REMARK  status: ('A' for Active; 'I' for Inactive)
REMARK    1  A    between atoms: O_1  and  C_10
REMARK    2  A    between atoms: O_1  and  C_11
REMARK    3  A    between atoms: O_2  and  C_5
REMARK    4  A    between atoms: C_4  and  C_10
REMARK                            x       y       z     vdW  Elec       q    Type
REMARK                         _______ _______ _______ _____ _____    ______ ____
ROOT
ATOM      1  C   UNL     1       1.563  -7.009  15.337  0.00  0.00    +0.000 A 
ATOM      2  C   UNL     1       0.590  -6.010  15.344  0.00  0.00    +0.000 A 
ATOM      3  C   UNL     1       1.505  -8.047  16.267  0.00  0.00    +0.000 A 
ATOM      4  C   UNL     1      -0.441  -6.048  16.282  0.00  0.00    +0.000 A 
ATOM      5  C   UNL     1       0.474  -8.085  17.205  0.00  0.00    +0.000 A 
ATOM      6  C   UNL     1      -0.499  -7.086  17.213  0.00  0.00    +0.000 A 
ATOM      7  H   UNL     1       2.240  -8.847  16.278  0.00  0.00    +0.000 HD
ATOM      8  H   UNL     1      -1.206  -5.277  16.300  0.00  0.00    +0.000 HD
ATOM      9  H   UNL     1       0.427  -8.895  17.928  0.00  0.00    +0.000 HD
ATOM     10  H   UNL     1      -1.303  -7.117  17.943  0.00  0.00    +0.000 HD
ENDROOT
BRANCH   2  11
ATOM     11  O   UNL     1       0.629  -4.987  14.445  0.00  0.00    +0.000 OA
ATOM     12  H   UNL     1       1.109  -4.238  14.835  0.00  0.00    +0.000 HD
ENDBRANCH   2  11
BRANCH   1  14
ATOM     13  O   UNL     1       2.492  -7.065  13.142  0.00  0.00    +0.000 OA
ATOM     14  C   UNL     1       2.648  -6.988  14.366  0.00  0.00    +0.000 C 
BRANCH  14  15
ATOM     15  O   UNL     1       3.867  -6.870  14.977  0.00  0.00    +0.000 OA
BRANCH  15  16
ATOM     16  C   UNL     1       4.303  -5.546  15.298  0.00  0.00    +0.000 C 
ATOM     17  H   UNL     1       3.989  -5.281  16.313  0.00  0.00    +0.000 HD
ATOM     18  H   UNL     1       3.904  -4.831  14.572  0.00  0.00    +0.000 HD
ATOM     19  H   UNL     1       5.394  -5.526  15.250  0.00  0.00    +0.000 HD
ENDBRANCH  15  16
ENDBRANCH  14  15
ENDBRANCH   1  14
TORSDOF 4
ENDMDL
MODEL 7
REMARK VINA RESULT:    -4.581      2.665      4.540
REMARK INTER + INTRA:          -5.744
REMARK INTER:                  -5.476
REMARK INTRA:                  -0.267
REMARK UNBOUND:                -0.359
REMARK  Name = 4133
REMARK  4 active torsions:
REMARK  status: ('A' for Active; 'I' for Inactive)
REMARK    1  A    between atoms: O_1  and  C_10
REMARK    2  A    between atoms: O_1  and  C_11
REMARK    3  A    between atoms: O_2  and  C_5
REMARK    4  A    between atoms: C_4  and  C_10
REMARK                            x       y       z     vdW  Elec       q    Type
REMARK                         _______ _______ _______ _____ _____    ______ ____
ROOT
ATOM      1  C   UNL     1      10.680 -10.149  -1.989  0.00  0.00    +0.000 A 
ATOM      2  C   UNL     1       9.639 -11.035  -1.710  0.00  0.00    +0.000 A 
ATOM      3  C   UNL     1      10.708  -8.894  -1.382  0.00  0.00    +0.000 A 
ATOM      4  C   UNL     1       8.626 -10.665  -0.826  0.00  0.00    +0.000 A 
ATOM      5  C   UNL     1       9.694  -8.523  -0.498  0.00  0.00    +0.000 A 
ATOM      6  C   UNL     1       8.654  -9.409  -0.220  0.00  0.00    +0.000 A 
ATOM      7  H   UNL     1      11.512  -8.186  -1.567  0.00  0.00    +0.000 HD
ATOM      8  H   UNL     1       7.809 -11.345  -0.600  0.00  0.00    +0.000 HD
ATOM      9  H   UNL     1       9.718  -7.547  -0.023  0.00  0.00    +0.000 HD
ATOM     10  H   UNL     1       7.865  -9.120   0.470  0.00  0.00    +0.000 HD
ENDROOT
BRANCH   2  11
ATOM     11  O   UNL     1       9.593 -12.266  -2.293  0.00  0.00    +0.000 OA
ATOM     12  H   UNL     1       8.708 -12.646  -2.164  0.00  0.00    +0.000 HD
ENDBRANCH   2  11
BRANCH   1  14
ATOM     13  O   UNL     1      11.637 -11.357  -3.808  0.00  0.00    +0.000 OA
ATOM     14  C   UNL     1      11.747 -10.516  -2.908  0.00  0.00    +0.000 C 
BRANCH  14  15
ATOM     15  O   UNL     1      12.892  -9.811  -2.654  0.00  0.00    +0.000 OA
BRANCH  15  16
ATOM     16  C   UNL     1      13.863  -9.756  -3.704  0.00  0.00    +0.000 C 
ATOM     17  H   UNL     1      14.874  -9.766  -3.284  0.00  0.00    +0.000 HD
ATOM     18  H   UNL     1      13.708  -8.861  -4.314  0.00  0.00    +0.000 HD
ATOM     19  H   UNL     1      13.734 -10.639  -4.333  0.00  0.00    +0.000 HD
ENDBRANCH  15  16
ENDBRANCH  14  15
ENDBRANCH   1  14
TORSDOF 4
ENDMDL
MODEL 8
REMARK VINA RESULT:    -4.534     22.695     23.834
REMARK INTER + INTRA:          -5.688
REMARK INTER:                  -5.370
REMARK INTRA:                  -0.317
REMARK UNBOUND:                -0.359
REMARK  Name = 4133
REMARK  4 active torsions:
REMARK  status: ('A' for Active; 'I' for Inactive)
REMARK    1  A    between atoms: O_1  and  C_10
REMARK    2  A    between atoms: O_1  and  C_11
REMARK    3  A    between atoms: O_2  and  C_5
REMARK    4  A    between atoms: C_4  and  C_10
REMARK                            x       y       z     vdW  Elec       q    Type
REMARK                         _______ _______ _______ _____ _____    ______ ____
ROOT
ATOM      1  C   UNL     1       6.644  12.837   0.185  0.00  0.00    +0.000 A 
ATOM      2  C   UNL     1       7.052  13.721   1.184  0.00  0.00    +0.000 A 
ATOM      3  C   UNL     1       5.873  11.722   0.512  0.00  0.00    +0.000 A 
ATOM      4  C   UNL     1       6.691  13.488   2.511  0.00  0.00    +0.000 A 
ATOM      5  C   UNL     1       5.512  11.489   1.839  0.00  0.00    +0.000 A 
ATOM      6  C   UNL     1       5.921  12.372   2.838  0.00  0.00    +0.000 A 
ATOM      7  H   UNL     1       5.527  11.023  -0.245  0.00  0.00    +0.000 HD
ATOM      8  H   UNL     1       7.002  14.167   3.299  0.00  0.00    +0.000 HD
ATOM      9  H   UNL     1       4.910  10.622   2.094  0.00  0.00    +0.000 HD
ATOM     10  H   UNL     1       5.638  12.191   3.872  0.00  0.00    +0.000 HD
ENDROOT
BRANCH   2  11
ATOM     11  O   UNL     1       7.805  14.816   0.885  0.00  0.00    +0.000 OA
ATOM     12  H   UNL     1       8.017  14.808  -0.063  0.00  0.00    +0.000 HD
ENDBRANCH   2  11
BRANCH   1  14
ATOM     13  O   UNL     1       6.219  13.415  -2.089  0.00  0.00    +0.000 OA
ATOM     14  C   UNL     1       7.010  13.062  -1.207  0.00  0.00    +0.000 C 
BRANCH  14  15
ATOM     15  O   UNL     1       8.342  12.835  -1.418  0.00  0.00    +0.000 OA
BRANCH  15  16
ATOM     16  C   UNL     1       8.685  11.695  -2.212  0.00  0.00    +0.000 C 
ATOM     17  H   UNL     1       8.601  10.780  -1.615  0.00  0.00    +0.000 HD
ATOM     18  H   UNL     1       9.698  11.803  -2.610  0.00  0.00    +0.000 HD
ATOM     19  H   UNL     1       7.981  11.637  -3.046  0.00  0.00    +0.000 HD
ENDBRANCH  15  16
ENDBRANCH  14  15
ENDBRANCH   1  14
TORSDOF 4
ENDMDL
MODEL 9
REMARK VINA RESULT:    -4.383     20.438     21.807
REMARK INTER + INTRA:          -5.510
REMARK INTER:                  -5.151
REMARK INTRA:                  -0.359
REMARK UNBOUND:                -0.359
REMARK  Name = 4133
REMARK  4 active torsions:
REMARK  status: ('A' for Active; 'I' for Inactive)
REMARK    1  A    between atoms: O_1  and  C_10
REMARK    2  A    between atoms: O_1  and  C_11
REMARK    3  A    between atoms: O_2  and  C_5
REMARK    4  A    between atoms: C_4  and  C_10
REMARK                            x       y       z     vdW  Elec       q    Type
REMARK                         _______ _______ _______ _____ _____    ______ ____
ROOT
ATOM      1  C   UNL     1      16.324   9.099   2.852  0.00  0.00    +0.000 A 
ATOM      2  C   UNL     1      15.696   9.799   1.822  0.00  0.00    +0.000 A 
ATOM      3  C   UNL     1      16.059   9.426   4.181  0.00  0.00    +0.000 A 
ATOM      4  C   UNL     1      14.803  10.828   2.122  0.00  0.00    +0.000 A 
ATOM      5  C   UNL     1      15.167  10.456   4.482  0.00  0.00    +0.000 A 
ATOM      6  C   UNL     1      14.539  11.156   3.452  0.00  0.00    +0.000 A 
ATOM      7  H   UNL     1      16.521   8.891   5.006  0.00  0.00    +0.000 HD
ATOM      8  H   UNL     1      14.307  11.382   1.330  0.00  0.00    +0.000 HD
ATOM      9  H   UNL     1      14.958  10.709   5.517  0.00  0.00    +0.000 HD
ATOM     10  H   UNL     1      13.843  11.957   3.686  0.00  0.00    +0.000 HD
ENDROOT
BRANCH   2  11
ATOM     11  O   UNL     1      15.941   9.495   0.517  0.00  0.00    +0.000 OA
ATOM     12  H   UNL     1      15.099   9.462   0.033  0.00  0.00    +0.000 HD
ENDBRANCH   2  11
BRANCH   1  14
ATOM     13  O   UNL     1      17.098   6.844   2.905  0.00  0.00    +0.000 OA
ATOM     14  C   UNL     1      17.259   8.021   2.561  0.00  0.00    +0.000 C 
BRANCH  14  15
ATOM     15  O   UNL     1      18.340   8.472   1.855  0.00  0.00    +0.000 OA
BRANCH  15  16
ATOM     16  C   UNL     1      19.435   8.994   2.614  0.00  0.00    +0.000 C 
ATOM     17  H   UNL     1      19.192   9.992   2.991  0.00  0.00    +0.000 HD
ATOM     18  H   UNL     1      20.340   9.023   2.000  0.00  0.00    +0.000 HD
ATOM     19  H   UNL     1      19.607   8.329   3.464  0.00  0.00    +0.000 HD
ENDBRANCH  15  16
ENDBRANCH  14  15
ENDBRANCH   1  14
TORSDOF 4
ENDMDL
MODEL 10
REMARK VINA RESULT:    -4.328     17.078     18.129
REMARK INTER + INTRA:          -5.445
REMARK INTER:                  -5.083
REMARK INTRA:                  -0.362
REMARK UNBOUND:                -0.359
REMARK  Name = 4133
REMARK  4 active torsions:
REMARK  status: ('A' for Active; 'I' for Inactive)
REMARK    1  A    between atoms: O_1  and  C_10
REMARK    2  A    between atoms: O_1  and  C_11
REMARK    3  A    between atoms: O_2  and  C_5
REMARK    4  A    between atoms: C_4  and  C_10
REMARK                            x       y       z     vdW  Elec       q    Type
REMARK                         _______ _______ _______ _____ _____    ______ ____
ROOT
ATOM      1  C   UNL     1       2.193  -5.976  14.800  0.00  0.00    +0.000 A 
ATOM      2  C   UNL     1       1.011  -5.328  15.159  0.00  0.00    +0.000 A 
ATOM      3  C   UNL     1       3.393  -5.267  14.761  0.00  0.00    +0.000 A 
ATOM      4  C   UNL     1       1.030  -3.969  15.477  0.00  0.00    +0.000 A 
ATOM      5  C   UNL     1       3.412  -3.908  15.078  0.00  0.00    +0.000 A 
ATOM      6  C   UNL     1       2.231  -3.260  15.436  0.00  0.00    +0.000 A 
ATOM      7  H   UNL     1       4.333  -5.746  14.499  0.00  0.00    +0.000 HD
ATOM      8  H   UNL     1       0.117  -3.451  15.758  0.00  0.00    +0.000 HD
ATOM      9  H   UNL     1       4.347  -3.357  15.050  0.00  0.00    +0.000 HD
ATOM     10  H   UNL     1       2.246  -2.202  15.685  0.00  0.00    +0.000 HD
ENDROOT
BRANCH   2  11
ATOM     11  O   UNL     1      -0.172  -6.002  15.204  0.00  0.00    +0.000 OA
ATOM     12  H   UNL     1      -0.142  -6.650  15.927  0.00  0.00    +0.000 HD
ENDBRANCH   2  11
BRANCH   1  14
ATOM     13  O   UNL     1       2.556  -7.853  13.375  0.00  0.00    +0.000 OA
ATOM     14  C   UNL     1       2.195  -7.393  14.465  0.00  0.00    +0.000 C 
BRANCH  14  15
ATOM     15  O   UNL     1       1.750  -8.156  15.510  0.00  0.00    +0.000 OA
BRANCH  15  16
ATOM     16  C   UNL     1       2.715  -8.520  16.501  0.00  0.00    +0.000 C 
ATOM     17  H   UNL     1       3.611  -7.899  16.401  0.00  0.00    +0.000 HD
ATOM     18  H   UNL     1       2.968  -9.581  16.409  0.00  0.00    +0.000 HD
ATOM     19  H   UNL     1       2.274  -8.346  17.486  0.00  0.00    +0.000 HD
ENDBRANCH  15  16
ENDBRANCH  14  15
ENDBRANCH   1  14
TORSDOF 4
ENDMDL
