MODEL 1
REMARK VINA RESULT:    -3.903      0.000      0.000
REMARK INTER + INTRA:          -5.447
REMARK INTER:                  -5.358
REMARK INTRA:                  -0.090
REMARK UNBOUND:                -0.175
REMARK  Name = 7824
REMARK  7 active torsions:
REMARK  status: ('A' for Active; 'I' for Inactive)
REMARK    1  A    between atoms: O_1  and  C_8
REMARK    2  A    between atoms: O_1  and  C_9
REMARK    3  A    between atoms: C_3  and  C_4
REMARK    4  A    between atoms: C_3  and  C_5
REMARK    5  A    between atoms: C_4  and  C_6
REMARK    6  A    between atoms: C_5  and  C_7
REMARK    7  A    between atoms: C_6  and  C_8
REMARK                            x       y       z     vdW  Elec       q    Type
REMARK                         _______ _______ _______ _____ _____    ______ ____
ROOT
ATOM      1  C   UNL     1       0.373  -5.198  16.175  0.00  0.00    +0.000 C 
ATOM      2  H   UNL     1      -0.150  -4.251  16.356  0.00  0.00    +0.000 HD
ATOM      3  H   UNL     1       1.175  -5.258  16.921  0.00  0.00    +0.000 HD
ENDROOT
BRANCH   1   4
ATOM      4  C   UNL     1      -0.598  -6.366  16.376  0.00  0.00    +0.000 C 
ATOM      5  H   UNL     1      -0.580  -7.016  15.493  0.00  0.00    +0.000 HD
ATOM      6  H   UNL     1      -1.618  -5.979  16.473  0.00  0.00    +0.000 HD
BRANCH   4   7
ATOM      7  C   UNL     1      -0.237  -7.178  17.620  0.00  0.00    +0.000 C 
ATOM      8  H   UNL     1       0.752  -6.879  17.987  0.00  0.00    +0.000 HD
ATOM      9  H   UNL     1      -0.957  -6.971  18.422  0.00  0.00    +0.000 HD
BRANCH   7  10
ATOM     10  C   UNL     1      -0.234  -8.670  17.332  0.00  0.00    +0.000 C 
ATOM     11  H   UNL     1      -1.227  -9.012  17.021  0.00  0.00    +0.000 HD
ATOM     12  H   UNL     1       0.477  -8.915  16.536  0.00  0.00    +0.000 HD
ATOM     13  H   UNL     1       0.052  -9.230  18.227  0.00  0.00    +0.000 HD
ENDBRANCH   7  10
ENDBRANCH   4   7
ENDBRANCH   1   4
BRANCH   1  14
ATOM     14  C   UNL     1       0.981  -5.180  14.774  0.00  0.00    +0.000 C 
ATOM     15  H   UNL     1       0.964  -6.191  14.352  0.00  0.00    +0.000 HD
ATOM     16  H   UNL     1       0.389  -4.518  14.130  0.00  0.00    +0.000 HD
BRANCH  14  18
ATOM     17  O   UNL     1       3.394  -5.375  15.018  0.00  0.00    +0.000 OA
ATOM     18  C   UNL     1       2.414  -4.693  14.751  0.00  0.00    +0.000 C 
BRANCH  18  19
ATOM     19  O   UNL     1       2.427  -3.369  14.416  0.00  0.00    +0.000 OA
BRANCH  19  20
ATOM     20  C   UNL     1       3.629  -2.663  14.740  0.00  0.00    +0.000 C 
ATOM     21  H   UNL     1       4.415  -3.399  14.928  0.00  0.00    +0.000 HD
ATOM     22  H   UNL     1       3.485  -2.066  15.646  0.00  0.00    +0.000 HD
ATOM     23  H   UNL     1       3.935  -2.028  13.903  0.00  0.00    +0.000 HD
ENDBRANCH  19  20
ENDBRANCH  18  19
ENDBRANCH  14  18
ENDBRANCH   1  14
TORSDOF 7
ENDMDL
MODEL 2
REMARK VINA RESULT:    -3.881      2.227      4.102
REMARK INTER + INTRA:          -5.418
REMARK INTER:                  -5.239
REMARK INTRA:                  -0.180
REMARK UNBOUND:                -0.175
REMARK  Name = 7824
REMARK  7 active torsions:
REMARK  status: ('A' for Active; 'I' for Inactive)
REMARK    1  A    between atoms: O_1  and  C_8
REMARK    2  A    between atoms: O_1  and  C_9
REMARK    3  A    between atoms: C_3  and  C_4
REMARK    4  A    between atoms: C_3  and  C_5
REMARK    5  A    between atoms: C_4  and  C_6
REMARK    6  A    between atoms: C_5  and  C_7
REMARK    7  A    between atoms: C_6  and  C_8
REMARK                            x       y       z     vdW  Elec       q    Type
REMARK                         _______ _______ _______ _____ _____    ______ ____
ROOT
ATOM      1  C   UNL     1       0.688  -4.773  15.908  0.00  0.00    +0.000 C 
ATOM      2  H   UNL     1       1.226  -4.954  16.847  0.00  0.00    +0.000 HD
ATOM      3  H   UNL     1      -0.343  -4.518  16.185  0.00  0.00    +0.000 HD
ENDROOT
BRANCH   1   4
ATOM      4  C   UNL     1       1.325  -3.589  15.173  0.00  0.00    +0.000 C 
ATOM      5  H   UNL     1       0.639  -2.734  15.187  0.00  0.00    +0.000 HD
ATOM      6  H   UNL     1       1.488  -3.857  14.123  0.00  0.00    +0.000 HD
BRANCH   4   7
ATOM      7  C   UNL     1       2.657  -3.193  15.812  0.00  0.00    +0.000 C 
ATOM      8  H   UNL     1       2.484  -2.460  16.610  0.00  0.00    +0.000 HD
ATOM      9  H   UNL     1       3.124  -4.071  16.275  0.00  0.00    +0.000 HD
BRANCH   7  10
ATOM     10  C   UNL     1       3.614  -2.603  14.789  0.00  0.00    +0.000 C 
ATOM     11  H   UNL     1       3.069  -2.194  13.932  0.00  0.00    +0.000 HD
ATOM     12  H   UNL     1       4.213  -1.800  15.230  0.00  0.00    +0.000 HD
ATOM     13  H   UNL     1       4.297  -3.374  14.420  0.00  0.00    +0.000 HD
ENDBRANCH   7  10
ENDBRANCH   4   7
ENDBRANCH   1   4
BRANCH   1  14
ATOM     14  C   UNL     1       0.690  -6.050  15.069  0.00  0.00    +0.000 C 
ATOM     15  H   UNL     1       0.039  -6.797  15.536  0.00  0.00    +0.000 HD
ATOM     16  H   UNL     1       0.308  -5.825  14.066  0.00  0.00    +0.000 HD
BRANCH  14  18
ATOM     17  O   UNL     1       2.795  -6.991  15.845  0.00  0.00    +0.000 OA
ATOM     18  C   UNL     1       2.065  -6.663  14.919  0.00  0.00    +0.000 C 
BRANCH  18  19
ATOM     19  O   UNL     1       2.366  -6.759  13.590  0.00  0.00    +0.000 OA
BRANCH  19  20
ATOM     20  C   UNL     1       2.869  -8.028  13.162  0.00  0.00    +0.000 C 
ATOM     21  H   UNL     1       3.379  -8.495  14.009  0.00  0.00    +0.000 HD
ATOM     22  H   UNL     1       3.588  -7.896  12.348  0.00  0.00    +0.000 HD
ATOM     23  H   UNL     1       2.045  -8.677  12.848  0.00  0.00    +0.000 HD
ENDBRANCH  19  20
ENDBRANCH  18  19
ENDBRANCH  14  18
ENDBRANCH   1  14
TORSDOF 7
ENDMDL
MODEL 3
REMARK VINA RESULT:    -3.819      1.293      2.012
REMARK INTER + INTRA:          -5.334
REMARK INTER:                  -5.074
REMARK INTRA:                  -0.260
REMARK UNBOUND:                -0.175
REMARK  Name = 7824
REMARK  7 active torsions:
REMARK  status: ('A' for Active; 'I' for Inactive)
REMARK    1  A    between atoms: O_1  and  C_8
REMARK    2  A    between atoms: O_1  and  C_9
REMARK    3  A    between atoms: C_3  and  C_4
REMARK    4  A    between atoms: C_3  and  C_5
REMARK    5  A    between atoms: C_4  and  C_6
REMARK    6  A    between atoms: C_5  and  C_7
REMARK    7  A    between atoms: C_6  and  C_8
REMARK                            x       y       z     vdW  Elec       q    Type
REMARK                         _______ _______ _______ _____ _____    ______ ____
ROOT
ATOM      1  C   UNL     1       0.144  -5.170  16.209  0.00  0.00    +0.000 C 
ATOM      2  H   UNL     1      -0.300  -4.523  15.442  0.00  0.00    +0.000 HD
ATOM      3  H   UNL     1       0.027  -4.644  17.165  0.00  0.00    +0.000 HD
ENDROOT
BRANCH   1   4
ATOM      4  C   UNL     1      -0.616  -6.499  16.261  0.00  0.00    +0.000 C 
ATOM      5  H   UNL     1      -0.876  -6.815  15.243  0.00  0.00    +0.000 HD
ATOM      6  H   UNL     1      -1.555  -6.360  16.808  0.00  0.00    +0.000 HD
BRANCH   4   7
ATOM      7  C   UNL     1       0.217  -7.587  16.941  0.00  0.00    +0.000 C 
ATOM      8  H   UNL     1       0.089  -8.539  16.413  0.00  0.00    +0.000 HD
ATOM      9  H   UNL     1       1.281  -7.327  16.889  0.00  0.00    +0.000 HD
BRANCH   7  10
ATOM     10  C   UNL     1      -0.179  -7.764  18.398  0.00  0.00    +0.000 C 
ATOM     11  H   UNL     1      -1.138  -8.286  18.483  0.00  0.00    +0.000 HD
ATOM     12  H   UNL     1       0.575  -8.341  18.942  0.00  0.00    +0.000 HD
ATOM     13  H   UNL     1      -0.279  -6.790  18.885  0.00  0.00    +0.000 HD
ENDBRANCH   7  10
ENDBRANCH   4   7
ENDBRANCH   1   4
BRANCH   1  14
ATOM     14  C   UNL     1       1.630  -5.360  15.910  0.00  0.00    +0.000 C 
ATOM     15  H   UNL     1       2.227  -4.886  16.697  0.00  0.00    +0.000 HD
ATOM     16  H   UNL     1       1.861  -6.432  15.888  0.00  0.00    +0.000 HD
BRANCH  14  18
ATOM     17  O   UNL     1       2.385  -3.599  14.411  0.00  0.00    +0.000 OA
ATOM     18  C   UNL     1       2.054  -4.764  14.585  0.00  0.00    +0.000 C 
BRANCH  18  19
ATOM     19  O   UNL     1       1.976  -5.727  13.620  0.00  0.00    +0.000 OA
BRANCH  19  20
ATOM     20  C   UNL     1       2.509  -7.006  13.981  0.00  0.00    +0.000 C 
ATOM     21  H   UNL     1       3.486  -7.114  13.503  0.00  0.00    +0.000 HD
ATOM     22  H   UNL     1       1.852  -7.804  13.622  0.00  0.00    +0.000 HD
ATOM     23  H   UNL     1       2.639  -7.070  15.066  0.00  0.00    +0.000 HD
ENDBRANCH  19  20
ENDBRANCH  18  19
ENDBRANCH  14  18
ENDBRANCH   1  14
TORSDOF 7
ENDMDL
MODEL 4
REMARK VINA RESULT:    -3.756      2.017      4.863
REMARK INTER + INTRA:          -5.249
REMARK INTER:                  -5.110
REMARK INTRA:                  -0.139
REMARK UNBOUND:                -0.175
REMARK  Name = 7824
REMARK  7 active torsions:
REMARK  status: ('A' for Active; 'I' for Inactive)
REMARK    1  A    between atoms: O_1  and  C_8
REMARK    2  A    between atoms: O_1  and  C_9
REMARK    3  A    between atoms: C_3  and  C_4
REMARK    4  A    between atoms: C_3  and  C_5
REMARK    5  A    between atoms: C_4  and  C_6
REMARK    6  A    between atoms: C_5  and  C_7
REMARK    7  A    between atoms: C_6  and  C_8
REMARK                            x       y       z     vdW  Elec       q    Type
REMARK                         _______ _______ _______ _____ _____    ______ ____
ROOT
ATOM      1  C   UNL     1       0.992  -4.802  15.046  0.00  0.00    +0.000 C 
ATOM      2  H   UNL     1       0.348  -4.819  14.157  0.00  0.00    +0.000 HD
ATOM      3  H   UNL     1       1.854  -5.441  14.816  0.00  0.00    +0.000 HD
ENDROOT
BRANCH   1   4
ATOM      4  C   UNL     1       1.474  -3.370  15.302  0.00  0.00    +0.000 C 
ATOM      5  H   UNL     1       0.863  -2.912  16.089  0.00  0.00    +0.000 HD
ATOM      6  H   UNL     1       1.337  -2.772  14.395  0.00  0.00    +0.000 HD
BRANCH   4   7
ATOM      7  C   UNL     1       2.946  -3.347  15.715  0.00  0.00    +0.000 C 
ATOM      8  H   UNL     1       3.050  -2.884  16.703  0.00  0.00    +0.000 HD
ATOM      9  H   UNL     1       3.326  -4.373  15.796  0.00  0.00    +0.000 HD
BRANCH   7  10
ATOM     10  C   UNL     1       3.795  -2.583  14.712  0.00  0.00    +0.000 C 
ATOM     11  H   UNL     1       3.271  -1.692  14.353  0.00  0.00    +0.000 HD
ATOM     12  H   UNL     1       4.743  -2.267  15.160  0.00  0.00    +0.000 HD
ATOM     13  H   UNL     1       4.022  -3.215  13.847  0.00  0.00    +0.000 HD
ENDBRANCH   7  10
ENDBRANCH   4   7
ENDBRANCH   1   4
BRANCH   1  14
ATOM     14  C   UNL     1       0.229  -5.383  16.235  0.00  0.00    +0.000 C 
ATOM     15  H   UNL     1       0.127  -4.620  17.014  0.00  0.00    +0.000 HD
ATOM     16  H   UNL     1      -0.772  -5.690  15.907  0.00  0.00    +0.000 HD
BRANCH  14  18
ATOM     17  O   UNL     1       1.892  -6.544  17.578  0.00  0.00    +0.000 OA
ATOM     18  C   UNL     1       0.909  -6.586  16.850  0.00  0.00    +0.000 C 
BRANCH  18  19
ATOM     19  O   UNL     1       0.268  -7.719  16.436  0.00  0.00    +0.000 OA
BRANCH  19  20
ATOM     20  C   UNL     1      -0.219  -8.568  17.481  0.00  0.00    +0.000 C 
ATOM     21  H   UNL     1       0.233  -8.242  18.421  0.00  0.00    +0.000 HD
ATOM     22  H   UNL     1       0.073  -9.605  17.292  0.00  0.00    +0.000 HD
ATOM     23  H   UNL     1      -1.307  -8.481  17.565  0.00  0.00    +0.000 HD
ENDBRANCH  19  20
ENDBRANCH  18  19
ENDBRANCH  14  18
ENDBRANCH   1  14
TORSDOF 7
ENDMDL
MODEL 5
REMARK VINA RESULT:    -3.722     17.692     19.076
REMARK INTER + INTRA:          -5.203
REMARK INTER:                  -5.082
REMARK INTRA:                  -0.122
REMARK UNBOUND:                -0.175
REMARK  Name = 7824
REMARK  7 active torsions:
REMARK  status: ('A' for Active; 'I' for Inactive)
REMARK    1  A    between atoms: O_1  and  C_8
REMARK    2  A    between atoms: O_1  and  C_9
REMARK    3  A    between atoms: C_3  and  C_4
REMARK    4  A    between atoms: C_3  and  C_5
REMARK    5  A    between atoms: C_4  and  C_6
REMARK    6  A    between atoms: C_5  and  C_7
REMARK    7  A    between atoms: C_6  and  C_8
REMARK                            x       y       z     vdW  Elec       q    Type
REMARK                         _______ _______ _______ _____ _____    ______ ____
ROOT
ATOM      1  C   UNL     1       8.477 -10.236  -0.578  0.00  0.00    +0.000 C 
ATOM      2  H   UNL     1       7.941  -9.750   0.247  0.00  0.00    +0.000 HD
ATOM      3  H   UNL     1       8.208  -9.687  -1.489  0.00  0.00    +0.000 HD
ENDROOT
BRANCH   1   4
ATOM      4  C   UNL     1       9.987 -10.127  -0.344  0.00  0.00    +0.000 C 
ATOM      5  H   UNL     1      10.477 -11.055  -0.661  0.00  0.00    +0.000 HD
ATOM      6  H   UNL     1      10.182 -10.007   0.728  0.00  0.00    +0.000 HD
BRANCH   4   7
ATOM      7  C   UNL     1      10.581  -8.944  -1.109  0.00  0.00    +0.000 C 
ATOM      8  H   UNL     1       9.776  -8.328  -1.528  0.00  0.00    +0.000 HD
ATOM      9  H   UNL     1      11.153  -8.306  -0.423  0.00  0.00    +0.000 HD
BRANCH   7  10
ATOM     10  C   UNL     1      11.495  -9.407  -2.232  0.00  0.00    +0.000 C 
ATOM     11  H   UNL     1      12.118  -8.584  -2.596  0.00  0.00    +0.000 HD
ATOM     12  H   UNL     1      12.154 -10.213  -1.894  0.00  0.00    +0.000 HD
ATOM     13  H   UNL     1      10.903  -9.782  -3.072  0.00  0.00    +0.000 HD
ENDBRANCH   7  10
ENDBRANCH   4   7
ENDBRANCH   1   4
BRANCH   1  14
ATOM     14  C   UNL     1       8.009 -11.685  -0.699  0.00  0.00    +0.000 C 
ATOM     15  H   UNL     1       7.758 -11.904  -1.743  0.00  0.00    +0.000 HD
ATOM     16  H   UNL     1       8.817 -12.355  -0.382  0.00  0.00    +0.000 HD
BRANCH  14  18
ATOM     17  O   UNL     1       6.701 -11.798   1.349  0.00  0.00    +0.000 OA
ATOM     18  C   UNL     1       6.790 -11.991   0.144  0.00  0.00    +0.000 C 
BRANCH  18  19
ATOM     19  O   UNL     1       5.827 -12.543  -0.651  0.00  0.00    +0.000 OA
BRANCH  19  20
ATOM     20  C   UNL     1       4.672 -11.728  -0.877  0.00  0.00    +0.000 C 
ATOM     21  H   UNL     1       3.994 -11.857  -0.030  0.00  0.00    +0.000 HD
ATOM     22  H   UNL     1       4.158 -12.044  -1.790  0.00  0.00    +0.000 HD
ATOM     23  H   UNL     1       4.959 -10.673  -0.939  0.00  0.00    +0.000 HD
ENDBRANCH  19  20
ENDBRANCH  18  19
ENDBRANCH  14  18
ENDBRANCH   1  14
TORSDOF 7
ENDMDL
MODEL 6
REMARK VINA RESULT:    -3.560     24.610     25.682
REMARK INTER + INTRA:          -4.984
REMARK INTER:                  -4.691
REMARK INTRA:                  -0.293
REMARK UNBOUND:                -0.175
REMARK  Name = 7824
REMARK  7 active torsions:
REMARK  status: ('A' for Active; 'I' for Inactive)
REMARK    1  A    between atoms: O_1  and  C_8
REMARK    2  A    between atoms: O_1  and  C_9
REMARK    3  A    between atoms: C_3  and  C_4
REMARK    4  A    between atoms: C_3  and  C_5
REMARK    5  A    between atoms: C_4  and  C_6
REMARK    6  A    between atoms: C_5  and  C_7
REMARK    7  A    between atoms: C_6  and  C_8
REMARK                            x       y       z     vdW  Elec       q    Type
REMARK                         _______ _______ _______ _____ _____    ______ ____
ROOT
ATOM      1  C   UNL     1      -2.800  -7.991  -9.231  0.00  0.00    +0.000 C 
ATOM      2  H   UNL     1      -1.740  -8.060  -9.510  0.00  0.00    +0.000 HD
ATOM      3  H   UNL     1      -2.836  -8.029  -8.135  0.00  0.00    +0.000 HD
ENDROOT
BRANCH   1   4
ATOM      4  C   UNL     1      -3.371  -6.654  -9.714  0.00  0.00    +0.000 C 
ATOM      5  H   UNL     1      -2.865  -6.349 -10.638  0.00  0.00    +0.000 HD
ATOM      6  H   UNL     1      -3.172  -5.881  -8.965  0.00  0.00    +0.000 HD
BRANCH   4   7
ATOM      7  C   UNL     1      -4.877  -6.753  -9.961  0.00  0.00    +0.000 C 
ATOM      8  H   UNL     1      -5.147  -6.177 -10.854  0.00  0.00    +0.000 HD
ATOM      9  H   UNL     1      -5.156  -7.796 -10.151  0.00  0.00    +0.000 HD
BRANCH   7  10
ATOM     10  C   UNL     1      -5.672  -6.237  -8.773  0.00  0.00    +0.000 C 
ATOM     11  H   UNL     1      -5.311  -5.253  -8.456  0.00  0.00    +0.000 HD
ATOM     12  H   UNL     1      -6.735  -6.149  -9.020  0.00  0.00    +0.000 HD
ATOM     13  H   UNL     1      -5.576  -6.922  -7.925  0.00  0.00    +0.000 HD
ENDBRANCH   7  10
ENDBRANCH   4   7
ENDBRANCH   1   4
BRANCH   1  14
ATOM     14  C   UNL     1      -3.552  -9.189  -9.808  0.00  0.00    +0.000 C 
ATOM     15  H   UNL     1      -4.462  -8.845 -10.312  0.00  0.00    +0.000 HD
ATOM     16  H   UNL     1      -2.914  -9.699 -10.540  0.00  0.00    +0.000 HD
BRANCH  14  18
ATOM     17  O   UNL     1      -4.297 -11.354  -8.986  0.00  0.00    +0.000 OA
ATOM     18  C   UNL     1      -3.959 -10.200  -8.758  0.00  0.00    +0.000 C 
BRANCH  18  19
ATOM     19  O   UNL     1      -3.914  -9.607  -7.529  0.00  0.00    +0.000 OA
BRANCH  19  20
ATOM     20  C   UNL     1      -5.127  -9.666  -6.771  0.00  0.00    +0.000 C 
ATOM     21  H   UNL     1      -5.964  -9.717  -7.473  0.00  0.00    +0.000 HD
ATOM     22  H   UNL     1      -5.236  -8.764  -6.161  0.00  0.00    +0.000 HD
ATOM     23  H   UNL     1      -5.139 -10.562  -6.144  0.00  0.00    +0.000 HD
ENDBRANCH  19  20
ENDBRANCH  18  19
ENDBRANCH  14  18
ENDBRANCH   1  14
TORSDOF 7
ENDMDL
MODEL 7
REMARK VINA RESULT:    -3.480     16.250     16.963
REMARK INTER + INTRA:          -4.876
REMARK INTER:                  -4.638
REMARK INTRA:                  -0.238
REMARK UNBOUND:                -0.175
REMARK  Name = 7824
REMARK  7 active torsions:
REMARK  status: ('A' for Active; 'I' for Inactive)
REMARK    1  A    between atoms: O_1  and  C_8
REMARK    2  A    between atoms: O_1  and  C_9
REMARK    3  A    between atoms: C_3  and  C_4
REMARK    4  A    between atoms: C_3  and  C_5
REMARK    5  A    between atoms: C_4  and  C_6
REMARK    6  A    between atoms: C_5  and  C_7
REMARK    7  A    between atoms: C_6  and  C_8
REMARK                            x       y       z     vdW  Elec       q    Type
REMARK                         _______ _______ _______ _____ _____    ______ ____
ROOT
ATOM      1  C   UNL     1       4.494 -12.352   1.957  0.00  0.00    +0.000 C 
ATOM      2  H   UNL     1       5.103 -11.702   2.597  0.00  0.00    +0.000 HD
ATOM      3  H   UNL     1       4.528 -13.352   2.407  0.00  0.00    +0.000 HD
ENDROOT
BRANCH   1   4
ATOM      4  C   UNL     1       3.047 -11.848   1.944  0.00  0.00    +0.000 C 
ATOM      5  H   UNL     1       2.667 -11.846   0.915  0.00  0.00    +0.000 HD
ATOM      6  H   UNL     1       3.018 -10.814   2.302  0.00  0.00    +0.000 HD
BRANCH   4   7
ATOM      7  C   UNL     1       2.149 -12.721   2.823  0.00  0.00    +0.000 C 
ATOM      8  H   UNL     1       1.715 -12.116   3.628  0.00  0.00    +0.000 HD
ATOM      9  H   UNL     1       1.317 -13.116   2.228  0.00  0.00    +0.000 HD
BRANCH   7  10
ATOM     10  C   UNL     1       2.920 -13.882   3.428  0.00  0.00    +0.000 C 
ATOM     11  H   UNL     1       2.423 -14.256   4.329  0.00  0.00    +0.000 HD
ATOM     12  H   UNL     1       3.007 -14.709   2.716  0.00  0.00    +0.000 HD
ATOM     13  H   UNL     1       3.930 -13.565   3.705  0.00  0.00    +0.000 HD
ENDBRANCH   7  10
ENDBRANCH   4   7
ENDBRANCH   1   4
BRANCH   1  14
ATOM     14  C   UNL     1       5.107 -12.401   0.558  0.00  0.00    +0.000 C 
ATOM     15  H   UNL     1       4.410 -11.964  -0.164  0.00  0.00    +0.000 HD
ATOM     16  H   UNL     1       6.036 -11.819   0.550  0.00  0.00    +0.000 HD
BRANCH  14  18
ATOM     17  O   UNL     1       4.780 -14.805   0.372  0.00  0.00    +0.000 OA
ATOM     18  C   UNL     1       5.431 -13.806   0.098  0.00  0.00    +0.000 C 
BRANCH  18  19
ATOM     19  O   UNL     1       6.579 -13.777  -0.642  0.00  0.00    +0.000 OA
BRANCH  19  20
ATOM     20  C   UNL     1       7.315 -12.551  -0.589  0.00  0.00    +0.000 C 
ATOM     21  H   UNL     1       8.365 -12.792  -0.405  0.00  0.00    +0.000 HD
ATOM     22  H   UNL     1       6.950 -11.925   0.231  0.00  0.00    +0.000 HD
ATOM     23  H   UNL     1       7.238 -12.021  -1.544  0.00  0.00    +0.000 HD
ENDBRANCH  19  20
ENDBRANCH  18  19
ENDBRANCH  14  18
ENDBRANCH   1  14
TORSDOF 7
ENDMDL
MODEL 8
REMARK VINA RESULT:    -3.463     17.797     18.457
REMARK INTER + INTRA:          -4.853
REMARK INTER:                  -4.710
REMARK INTRA:                  -0.143
REMARK UNBOUND:                -0.175
REMARK  Name = 7824
REMARK  7 active torsions:
REMARK  status: ('A' for Active; 'I' for Inactive)
REMARK    1  A    between atoms: O_1  and  C_8
REMARK    2  A    between atoms: O_1  and  C_9
REMARK    3  A    between atoms: C_3  and  C_4
REMARK    4  A    between atoms: C_3  and  C_5
REMARK    5  A    between atoms: C_4  and  C_6
REMARK    6  A    between atoms: C_5  and  C_7
REMARK    7  A    between atoms: C_6  and  C_8
REMARK                            x       y       z     vdW  Elec       q    Type
REMARK                         _______ _______ _______ _____ _____    ______ ____
ROOT
ATOM      1  C   UNL     1     -13.302 -15.825   8.398  0.00  0.00    +0.000 C 
ATOM      2  H   UNL     1     -13.341 -16.673   9.093  0.00  0.00    +0.000 HD
ATOM      3  H   UNL     1     -13.468 -16.237   7.395  0.00  0.00    +0.000 HD
ENDROOT
BRANCH   1   4
ATOM      4  C   UNL     1     -14.421 -14.834   8.734  0.00  0.00    +0.000 C 
ATOM      5  H   UNL     1     -15.396 -15.322   8.605  0.00  0.00    +0.000 HD
ATOM      6  H   UNL     1     -14.385 -13.992   8.034  0.00  0.00    +0.000 HD
BRANCH   4   7
ATOM      7  C   UNL     1     -14.291 -14.317  10.167  0.00  0.00    +0.000 C 
ATOM      8  H   UNL     1     -14.913 -14.920  10.839  0.00  0.00    +0.000 HD
ATOM      9  H   UNL     1     -13.253 -14.419  10.507  0.00  0.00    +0.000 HD
BRANCH   7  10
ATOM     10  C   UNL     1     -14.705 -12.858  10.274  0.00  0.00    +0.000 C 
ATOM     11  H   UNL     1     -13.920 -12.198   9.891  0.00  0.00    +0.000 HD
ATOM     12  H   UNL     1     -15.621 -12.668   9.704  0.00  0.00    +0.000 HD
ATOM     13  H   UNL     1     -14.893 -12.592  11.318  0.00  0.00    +0.000 HD
ENDBRANCH   7  10
ENDBRANCH   4   7
ENDBRANCH   1   4
BRANCH   1  14
ATOM     14  C   UNL     1     -11.917 -15.183   8.461  0.00  0.00    +0.000 C 
ATOM     15  H   UNL     1     -11.804 -14.470   7.637  0.00  0.00    +0.000 HD
ATOM     16  H   UNL     1     -11.811 -14.644   9.411  0.00  0.00    +0.000 HD
BRANCH  14  18
ATOM     17  O   UNL     1     -10.743 -17.253   8.962  0.00  0.00    +0.000 OA
ATOM     18  C   UNL     1     -10.789 -16.186   8.365  0.00  0.00    +0.000 C 
BRANCH  18  19
ATOM     19  O   UNL     1      -9.826 -15.693   7.531  0.00  0.00    +0.000 OA
BRANCH  19  20
ATOM     20  C   UNL     1     -10.293 -15.206   6.270  0.00  0.00    +0.000 C 
ATOM     21  H   UNL     1     -10.125 -14.126   6.239  0.00  0.00    +0.000 HD
ATOM     22  H   UNL     1     -11.365 -15.398   6.164  0.00  0.00    +0.000 HD
ATOM     23  H   UNL     1      -9.734 -15.672   5.452  0.00  0.00    +0.000 HD
ENDBRANCH  19  20
ENDBRANCH  18  19
ENDBRANCH  14  18
ENDBRANCH   1  14
TORSDOF 7
ENDMDL
MODEL 9
REMARK VINA RESULT:    -3.436      3.065      3.843
REMARK INTER + INTRA:          -4.817
REMARK INTER:                  -4.697
REMARK INTRA:                  -0.120
REMARK UNBOUND:                -0.175
REMARK  Name = 7824
REMARK  7 active torsions:
REMARK  status: ('A' for Active; 'I' for Inactive)
REMARK    1  A    between atoms: O_1  and  C_8
REMARK    2  A    between atoms: O_1  and  C_9
REMARK    3  A    between atoms: C_3  and  C_4
REMARK    4  A    between atoms: C_3  and  C_5
REMARK    5  A    between atoms: C_4  and  C_6
REMARK    6  A    between atoms: C_5  and  C_7
REMARK    7  A    between atoms: C_6  and  C_8
REMARK                            x       y       z     vdW  Elec       q    Type
REMARK                         _______ _______ _______ _____ _____    ______ ____
ROOT
ATOM      1  C   UNL     1       1.289  -7.272  14.746  0.00  0.00    +0.000 C 
ATOM      2  H   UNL     1       1.691  -7.860  15.581  0.00  0.00    +0.000 HD
ATOM      3  H   UNL     1       0.515  -7.892  14.275  0.00  0.00    +0.000 HD
ENDROOT
BRANCH   1   4
ATOM      4  C   UNL     1       0.654  -5.986  15.283  0.00  0.00    +0.000 C 
ATOM      5  H   UNL     1       0.303  -5.371  14.445  0.00  0.00    +0.000 HD
ATOM      6  H   UNL     1       1.411  -5.402  15.818  0.00  0.00    +0.000 HD
BRANCH   4   7
ATOM      7  C   UNL     1      -0.513  -6.294  16.222  0.00  0.00    +0.000 C 
ATOM      8  H   UNL     1      -0.827  -5.380  16.740  0.00  0.00    +0.000 HD
ATOM      9  H   UNL     1      -1.373  -6.650  15.642  0.00  0.00    +0.000 HD
BRANCH   7  10
ATOM     10  C   UNL     1      -0.139  -7.349  17.250  0.00  0.00    +0.000 C 
ATOM     11  H   UNL     1       0.761  -7.893  16.944  0.00  0.00    +0.000 HD
ATOM     12  H   UNL     1       0.051  -6.894  18.227  0.00  0.00    +0.000 HD
ATOM     13  H   UNL     1      -0.951  -8.073  17.364  0.00  0.00    +0.000 HD
ENDBRANCH   7  10
ENDBRANCH   4   7
ENDBRANCH   1   4
BRANCH   1  14
ATOM     14  C   UNL     1       2.404  -6.997  13.739  0.00  0.00    +0.000 C 
ATOM     15  H   UNL     1       1.967  -6.753  12.765  0.00  0.00    +0.000 HD
ATOM     16  H   UNL     1       3.000  -6.143  14.083  0.00  0.00    +0.000 HD
BRANCH  14  18
ATOM     17  O   UNL     1       3.812  -8.527  12.476  0.00  0.00    +0.000 OA
ATOM     18  C   UNL     1       3.339  -8.171  13.547  0.00  0.00    +0.000 C 
BRANCH  18  19
ATOM     19  O   UNL     1       3.540  -8.781  14.753  0.00  0.00    +0.000 OA
BRANCH  19  20
ATOM     20  C   UNL     1       4.654  -9.677  14.812  0.00  0.00    +0.000 C 
ATOM     21  H   UNL     1       4.809 -10.093  13.813  0.00  0.00    +0.000 HD
ATOM     22  H   UNL     1       4.442 -10.498  15.505  0.00  0.00    +0.000 HD
ATOM     23  H   UNL     1       5.558  -9.140  15.114  0.00  0.00    +0.000 HD
ENDBRANCH  19  20
ENDBRANCH  18  19
ENDBRANCH  14  18
ENDBRANCH   1  14
TORSDOF 7
ENDMDL
MODEL 10
REMARK VINA RESULT:    -3.403      2.287      3.051
REMARK INTER + INTRA:          -4.772
REMARK INTER:                  -4.596
REMARK INTRA:                  -0.175
REMARK UNBOUND:                -0.175
REMARK  Name = 7824
REMARK  7 active torsions:
REMARK  status: ('A' for Active; 'I' for Inactive)
REMARK    1  A    between atoms: O_1  and  C_8
REMARK    2  A    between atoms: O_1  and  C_9
REMARK    3  A    between atoms: C_3  and  C_4
REMARK    4  A    between atoms: C_3  and  C_5
REMARK    5  A    between atoms: C_4  and  C_6
REMARK    6  A    between atoms: C_5  and  C_7
REMARK    7  A    between atoms: C_6  and  C_8
REMARK                            x       y       z     vdW  Elec       q    Type
REMARK                         _______ _______ _______ _____ _____    ______ ____
ROOT
ATOM      1  C   UNL     1      -0.464  -7.196  17.188  0.00  0.00    +0.000 C 
ATOM      2  H   UNL     1      -0.499  -8.025  16.470  0.00  0.00    +0.000 HD
ATOM      3  H   UNL     1      -1.466  -6.749  17.196  0.00  0.00    +0.000 HD
ENDROOT
BRANCH   1   4
ATOM      4  C   UNL     1      -0.136  -7.738  18.583  0.00  0.00    +0.000 C 
ATOM      5  H   UNL     1      -1.042  -7.739  19.200  0.00  0.00    +0.000 HD
ATOM      6  H   UNL     1       0.588  -7.075  19.070  0.00  0.00    +0.000 HD
BRANCH   4   7
ATOM      7  C   UNL     1       0.436  -9.154  18.505  0.00  0.00    +0.000 C 
ATOM      8  H   UNL     1       1.461  -9.122  18.116  0.00  0.00    +0.000 HD
ATOM      9  H   UNL     1       0.484  -9.592  19.510  0.00  0.00    +0.000 HD
BRANCH   7  10
ATOM     10  C   UNL     1      -0.410 -10.050  17.615  0.00  0.00    +0.000 C 
ATOM     11  H   UNL     1      -1.095  -9.457  17.000  0.00  0.00    +0.000 HD
ATOM     12  H   UNL     1       0.220 -10.647  16.948  0.00  0.00    +0.000 HD
ATOM     13  H   UNL     1      -1.006 -10.735  18.224  0.00  0.00    +0.000 HD
ENDBRANCH   7  10
ENDBRANCH   4   7
ENDBRANCH   1   4
BRANCH   1  14
ATOM     14  C   UNL     1       0.552  -6.159  16.711  0.00  0.00    +0.000 C 
ATOM     15  H   UNL     1       0.238  -5.161  17.035  0.00  0.00    +0.000 HD
ATOM     16  H   UNL     1       1.531  -6.382  17.152  0.00  0.00    +0.000 HD
BRANCH  14  18
ATOM     17  O   UNL     1       0.545  -5.144  14.500  0.00  0.00    +0.000 OA
ATOM     18  C   UNL     1       0.713  -6.129  15.207  0.00  0.00    +0.000 C 
BRANCH  18  19
ATOM     19  O   UNL     1       1.044  -7.380  14.771  0.00  0.00    +0.000 OA
BRANCH  19  20
ATOM     20  C   UNL     1       2.420  -7.743  14.927  0.00  0.00    +0.000 C 
ATOM     21  H   UNL     1       2.817  -8.004  13.943  0.00  0.00    +0.000 HD
ATOM     22  H   UNL     1       2.509  -8.614  15.583  0.00  0.00    +0.000 HD
ATOM     23  H   UNL     1       2.992  -6.899  15.325  0.00  0.00    +0.000 HD
ENDBRANCH  19  20
ENDBRANCH  18  19
ENDBRANCH  14  18
ENDBRANCH   1  14
TORSDOF 7
ENDMDL
