MODEL 1
REMARK VINA RESULT:    -4.346      0.000      0.000
REMARK INTER + INTRA:          -6.774
REMARK INTER:                  -6.585
REMARK INTRA:                  -0.189
REMARK UNBOUND:                -0.523
REMARK  Name = 31289
REMARK  8 active torsions:
REMARK  status: ('A' for Active; 'I' for Inactive)
REMARK    1  A    between atoms: C_2  and  C_3
REMARK    2  A    between atoms: C_2  and  C_4
REMARK    3  A    between atoms: C_3  and  C_5
REMARK    4  A    between atoms: C_4  and  C_6
REMARK    5  A    between atoms: C_5  and  C_7
REMARK    6  A    between atoms: C_6  and  C_8
REMARK    7  A    between atoms: C_7  and  C_9
REMARK    8  A    between atoms: C_8  and  C_10
REMARK                            x       y       z     vdW  Elec       q    Type
REMARK                         _______ _______ _______ _____ _____    ______ ____
ROOT
ATOM      1  C   UNL     1      -0.496  -5.842  16.463  0.00  0.00    +0.000 C 
ATOM      2  H   UNL     1      -1.507  -5.573  16.137  0.00  0.00    +0.000 HD
ATOM      3  H   UNL     1      -0.260  -5.217  17.334  0.00  0.00    +0.000 HD
ENDROOT
BRANCH   1   4
ATOM      4  C   UNL     1      -0.465  -7.316  16.872  0.00  0.00    +0.000 C 
ATOM      5  H   UNL     1      -1.458  -7.755  16.719  0.00  0.00    +0.000 HD
ATOM      6  H   UNL     1       0.226  -7.858  16.213  0.00  0.00    +0.000 HD
BRANCH   4   7
ATOM      7  C   UNL     1      -0.038  -7.537  18.326  0.00  0.00    +0.000 C 
ATOM      8  H   UNL     1       0.911  -7.017  18.505  0.00  0.00    +0.000 HD
ATOM      9  H   UNL     1      -0.782  -7.073  18.986  0.00  0.00    +0.000 HD
BRANCH   7  10
ATOM     10  C   UNL     1       0.118  -9.012  18.696  0.00  0.00    +0.000 C 
ATOM     11  H   UNL     1       1.171  -9.234  18.902  0.00  0.00    +0.000 HD
ATOM     12  H   UNL     1      -0.446  -9.227  19.611  0.00  0.00    +0.000 HD
BRANCH  10  13
ATOM     13  C   UNL     1      -0.373  -9.918  17.576  0.00  0.00    +0.000 C 
ATOM     14  H   UNL     1      -1.402  -9.672  17.295  0.00  0.00    +0.000 HD
ATOM     15  H   UNL     1       0.259  -9.802  16.691  0.00  0.00    +0.000 HD
ATOM     16  H   UNL     1      -0.341 -10.970  17.881  0.00  0.00    +0.000 HD
ENDBRANCH  10  13
ENDBRANCH   7  10
ENDBRANCH   4   7
ENDBRANCH   1   4
BRANCH   1  17
ATOM     17  C   UNL     1       0.504  -5.557  15.340  0.00  0.00    +0.000 C 
ATOM     18  H   UNL     1       1.291  -6.320  15.341  0.00  0.00    +0.000 HD
ATOM     19  H   UNL     1      -0.005  -5.618  14.371  0.00  0.00    +0.000 HD
BRANCH  17  20
ATOM     20  C   UNL     1       1.139  -4.172  15.499  0.00  0.00    +0.000 C 
ATOM     21  H   UNL     1       0.436  -3.404  15.153  0.00  0.00    +0.000 HD
ATOM     22  H   UNL     1       1.319  -3.971  16.563  0.00  0.00    +0.000 HD
BRANCH  20  23
ATOM     23  C   UNL     1       2.450  -4.039  14.729  0.00  0.00    +0.000 C 
ATOM     24  H   UNL     1       3.058  -4.941  14.857  0.00  0.00    +0.000 HD
ATOM     25  H   UNL     1       2.244  -3.920  13.659  0.00  0.00    +0.000 HD
BRANCH  23  27
ATOM     26  O   UNL     1       3.932  -2.141  14.394  0.00  0.00    +0.000 OA
ATOM     27  C   UNL     1       3.296  -2.862  15.155  0.00  0.00    +0.000 C 
ATOM     28  H   UNL     1       3.303  -2.666  16.241  0.00  0.00    +0.000 HD
ENDBRANCH  23  27
ENDBRANCH  20  23
ENDBRANCH  17  20
ENDBRANCH   1  17
TORSDOF 8
ENDMDL
MODEL 2
REMARK VINA RESULT:    -4.222      3.112      5.104
REMARK INTER + INTRA:          -6.597
REMARK INTER:                  -6.187
REMARK INTRA:                  -0.409
REMARK UNBOUND:                -0.523
REMARK  Name = 31289
REMARK  8 active torsions:
REMARK  status: ('A' for Active; 'I' for Inactive)
REMARK    1  A    between atoms: C_2  and  C_3
REMARK    2  A    between atoms: C_2  and  C_4
REMARK    3  A    between atoms: C_3  and  C_5
REMARK    4  A    between atoms: C_4  and  C_6
REMARK    5  A    between atoms: C_5  and  C_7
REMARK    6  A    between atoms: C_6  and  C_8
REMARK    7  A    between atoms: C_7  and  C_9
REMARK    8  A    between atoms: C_8  and  C_10
REMARK                            x       y       z     vdW  Elec       q    Type
REMARK                         _______ _______ _______ _____ _____    ______ ____
ROOT
ATOM      1  C   UNL     1       0.057  -6.345  15.440  0.00  0.00    +0.000 C 
ATOM      2  H   UNL     1      -0.470  -6.985  16.158  0.00  0.00    +0.000 HD
ATOM      3  H   UNL     1      -0.696  -5.945  14.750  0.00  0.00    +0.000 HD
ENDROOT
BRANCH   1   4
ATOM      4  C   UNL     1       0.731  -5.189  16.183  0.00  0.00    +0.000 C 
ATOM      5  H   UNL     1       0.009  -4.731  16.870  0.00  0.00    +0.000 HD
ATOM      6  H   UNL     1       1.548  -5.584  16.799  0.00  0.00    +0.000 HD
BRANCH   4   7
ATOM      7  C   UNL     1       1.289  -4.109  15.251  0.00  0.00    +0.000 C 
ATOM      8  H   UNL     1       1.530  -4.561  14.281  0.00  0.00    +0.000 HD
ATOM      9  H   UNL     1       0.507  -3.362  15.068  0.00  0.00    +0.000 HD
BRANCH   7  10
ATOM     10  C   UNL     1       2.533  -3.414  15.806  0.00  0.00    +0.000 C 
ATOM     11  H   UNL     1       2.240  -2.670  16.555  0.00  0.00    +0.000 HD
ATOM     12  H   UNL     1       3.175  -4.147  16.309  0.00  0.00    +0.000 HD
BRANCH  10  13
ATOM     13  C   UNL     1       3.321  -2.725  14.702  0.00  0.00    +0.000 C 
ATOM     14  H   UNL     1       2.964  -3.034  13.714  0.00  0.00    +0.000 HD
ATOM     15  H   UNL     1       3.212  -1.640  14.779  0.00  0.00    +0.000 HD
ATOM     16  H   UNL     1       4.387  -2.966  14.773  0.00  0.00    +0.000 HD
ENDBRANCH  10  13
ENDBRANCH   7  10
ENDBRANCH   4   7
ENDBRANCH   1   4
BRANCH   1  17
ATOM     17  C   UNL     1       1.080  -7.174  14.661  0.00  0.00    +0.000 C 
ATOM     18  H   UNL     1       0.584  -8.036  14.198  0.00  0.00    +0.000 HD
ATOM     19  H   UNL     1       1.502  -6.570  13.849  0.00  0.00    +0.000 HD
BRANCH  17  20
ATOM     20  C   UNL     1       2.207  -7.667  15.574  0.00  0.00    +0.000 C 
ATOM     21  H   UNL     1       2.407  -6.916  16.348  0.00  0.00    +0.000 HD
ATOM     22  H   UNL     1       1.884  -8.575  16.098  0.00  0.00    +0.000 HD
BRANCH  20  23
ATOM     23  C   UNL     1       3.495  -7.954  14.807  0.00  0.00    +0.000 C 
ATOM     24  H   UNL     1       4.259  -7.209  15.055  0.00  0.00    +0.000 HD
ATOM     25  H   UNL     1       3.884  -8.941  15.085  0.00  0.00    +0.000 HD
BRANCH  23  27
ATOM     26  O   UNL     1       3.764  -8.804  12.545  0.00  0.00    +0.000 OA
ATOM     27  C   UNL     1       3.330  -7.945  13.305  0.00  0.00    +0.000 C 
ATOM     28  H   UNL     1       2.758  -7.089  12.907  0.00  0.00    +0.000 HD
ENDBRANCH  23  27
ENDBRANCH  20  23
ENDBRANCH  17  20
ENDBRANCH   1  17
TORSDOF 8
ENDMDL
MODEL 3
REMARK VINA RESULT:    -4.118      2.429      5.311
REMARK INTER + INTRA:          -6.447
REMARK INTER:                  -5.978
REMARK INTRA:                  -0.469
REMARK UNBOUND:                -0.523
REMARK  Name = 31289
REMARK  8 active torsions:
REMARK  status: ('A' for Active; 'I' for Inactive)
REMARK    1  A    between atoms: C_2  and  C_3
REMARK    2  A    between atoms: C_2  and  C_4
REMARK    3  A    between atoms: C_3  and  C_5
REMARK    4  A    between atoms: C_4  and  C_6
REMARK    5  A    between atoms: C_5  and  C_7
REMARK    6  A    between atoms: C_6  and  C_8
REMARK    7  A    between atoms: C_7  and  C_9
REMARK    8  A    between atoms: C_8  and  C_10
REMARK                            x       y       z     vdW  Elec       q    Type
REMARK                         _______ _______ _______ _____ _____    ______ ____
ROOT
ATOM      1  C   UNL     1      -0.064  -5.248  16.277  0.00  0.00    +0.000 C 
ATOM      2  H   UNL     1       0.234  -5.047  17.313  0.00  0.00    +0.000 HD
ATOM      3  H   UNL     1      -0.838  -4.516  16.015  0.00  0.00    +0.000 HD
ENDROOT
BRANCH   1   4
ATOM      4  C   UNL     1       1.141  -5.067  15.353  0.00  0.00    +0.000 C 
ATOM      5  H   UNL     1       1.288  -5.982  14.767  0.00  0.00    +0.000 HD
ATOM      6  H   UNL     1       0.929  -4.263  14.636  0.00  0.00    +0.000 HD
BRANCH   4   7
ATOM      7  C   UNL     1       2.437  -4.735  16.099  0.00  0.00    +0.000 C 
ATOM      8  H   UNL     1       2.242  -4.740  17.178  0.00  0.00    +0.000 HD
ATOM      9  H   UNL     1       3.169  -5.530  15.905  0.00  0.00    +0.000 HD
BRANCH   7  10
ATOM     10  C   UNL     1       3.038  -3.386  15.702  0.00  0.00    +0.000 C 
ATOM     11  H   UNL     1       3.229  -2.786  16.599  0.00  0.00    +0.000 HD
ATOM     12  H   UNL     1       4.002  -3.542  15.203  0.00  0.00    +0.000 HD
BRANCH  10  13
ATOM     13  C   UNL     1       2.108  -2.617  14.776  0.00  0.00    +0.000 C 
ATOM     14  H   UNL     1       1.062  -2.752  15.070  0.00  0.00    +0.000 HD
ATOM     15  H   UNL     1       2.336  -1.548  14.813  0.00  0.00    +0.000 HD
ATOM     16  H   UNL     1       2.221  -2.953  13.739  0.00  0.00    +0.000 HD
ENDBRANCH  10  13
ENDBRANCH   7  10
ENDBRANCH   4   7
ENDBRANCH   1   4
BRANCH   1  17
ATOM     17  C   UNL     1      -0.638  -6.663  16.170  0.00  0.00    +0.000 C 
ATOM     18  H   UNL     1      -1.719  -6.613  15.994  0.00  0.00    +0.000 HD
ATOM     19  H   UNL     1      -0.193  -7.176  15.309  0.00  0.00    +0.000 HD
BRANCH  17  20
ATOM     20  C   UNL     1      -0.368  -7.470  17.444  0.00  0.00    +0.000 C 
ATOM     21  H   UNL     1       0.245  -6.875  18.132  0.00  0.00    +0.000 HD
ATOM     22  H   UNL     1      -1.315  -7.665  17.962  0.00  0.00    +0.000 HD
BRANCH  20  23
ATOM     23  C   UNL     1       0.337  -8.793  17.158  0.00  0.00    +0.000 C 
ATOM     24  H   UNL     1       0.176  -9.496  17.983  0.00  0.00    +0.000 HD
ATOM     25  H   UNL     1      -0.071  -9.245  16.246  0.00  0.00    +0.000 HD
BRANCH  23  27
ATOM     26  O   UNL     1       2.381  -8.413  15.897  0.00  0.00    +0.000 OA
ATOM     27  C   UNL     1       1.830  -8.664  16.963  0.00  0.00    +0.000 C 
ATOM     28  H   UNL     1       2.430  -8.801  17.880  0.00  0.00    +0.000 HD
ENDBRANCH  23  27
ENDBRANCH  20  23
ENDBRANCH  17  20
ENDBRANCH   1  17
TORSDOF 8
ENDMDL
MODEL 4
REMARK VINA RESULT:    -4.102     18.968     20.023
REMARK INTER + INTRA:          -6.424
REMARK INTER:                  -6.197
REMARK INTRA:                  -0.227
REMARK UNBOUND:                -0.523
REMARK  Name = 31289
REMARK  8 active torsions:
REMARK  status: ('A' for Active; 'I' for Inactive)
REMARK    1  A    between atoms: C_2  and  C_3
REMARK    2  A    between atoms: C_2  and  C_4
REMARK    3  A    between atoms: C_3  and  C_5
REMARK    4  A    between atoms: C_4  and  C_6
REMARK    5  A    between atoms: C_5  and  C_7
REMARK    6  A    between atoms: C_6  and  C_8
REMARK    7  A    between atoms: C_7  and  C_9
REMARK    8  A    between atoms: C_8  and  C_10
REMARK                            x       y       z     vdW  Elec       q    Type
REMARK                         _______ _______ _______ _____ _____    ______ ____
ROOT
ATOM      1  C   UNL     1       8.059 -10.143  -0.370  0.00  0.00    +0.000 C 
ATOM      2  H   UNL     1       7.570  -9.530  -1.136  0.00  0.00    +0.000 HD
ATOM      3  H   UNL     1       7.558  -9.932   0.583  0.00  0.00    +0.000 HD
ENDROOT
BRANCH   1   4
ATOM      4  C   UNL     1       7.891 -11.624  -0.716  0.00  0.00    +0.000 C 
ATOM      5  H   UNL     1       7.643 -11.721  -1.780  0.00  0.00    +0.000 HD
ATOM      6  H   UNL     1       8.848 -12.140  -0.565  0.00  0.00    +0.000 HD
BRANCH   4   7
ATOM      7  C   UNL     1       6.814 -12.326   0.116  0.00  0.00    +0.000 C 
ATOM      8  H   UNL     1       7.273 -13.146   0.681  0.00  0.00    +0.000 HD
ATOM      9  H   UNL     1       6.419 -11.615   0.854  0.00  0.00    +0.000 HD
BRANCH   7  10
ATOM     10  C   UNL     1       5.661 -12.876  -0.724  0.00  0.00    +0.000 C 
ATOM     11  H   UNL     1       6.033 -13.189  -1.706  0.00  0.00    +0.000 HD
ATOM     12  H   UNL     1       5.238 -13.764  -0.238  0.00  0.00    +0.000 HD
BRANCH  10  13
ATOM     13  C   UNL     1       4.568 -11.835  -0.915  0.00  0.00    +0.000 C 
ATOM     14  H   UNL     1       4.912 -11.018  -1.556  0.00  0.00    +0.000 HD
ATOM     15  H   UNL     1       3.690 -12.289  -1.384  0.00  0.00    +0.000 HD
ATOM     16  H   UNL     1       4.258 -11.412   0.047  0.00  0.00    +0.000 HD
ENDBRANCH  10  13
ENDBRANCH   7  10
ENDBRANCH   4   7
ENDBRANCH   1   4
BRANCH   1  17
ATOM     17  C   UNL     1       9.538  -9.761  -0.269  0.00  0.00    +0.000 C 
ATOM     18  H   UNL     1       9.637  -8.670  -0.222  0.00  0.00    +0.000 HD
ATOM     19  H   UNL     1       9.959 -10.165   0.660  0.00  0.00    +0.000 HD
BRANCH  17  20
ATOM     20  C   UNL     1      10.332 -10.293  -1.466  0.00  0.00    +0.000 C 
ATOM     21  H   UNL     1      10.890 -11.189  -1.167  0.00  0.00    +0.000 HD
ATOM     22  H   UNL     1       9.639 -10.608  -2.255  0.00  0.00    +0.000 HD
BRANCH  20  23
ATOM     23  C   UNL     1      11.304  -9.259  -2.026  0.00  0.00    +0.000 C 
ATOM     24  H   UNL     1      10.763  -8.507  -2.612  0.00  0.00    +0.000 HD
ATOM     25  H   UNL     1      11.816  -8.742  -1.206  0.00  0.00    +0.000 HD
BRANCH  23  27
ATOM     26  O   UNL     1      13.573  -9.616  -2.823  0.00  0.00    +0.000 OA
ATOM     27  C   UNL     1      12.372  -9.842  -2.923  0.00  0.00    +0.000 C 
ATOM     28  H   UNL     1      11.997 -10.527  -3.704  0.00  0.00    +0.000 HD
ENDBRANCH  23  27
ENDBRANCH  20  23
ENDBRANCH  17  20
ENDBRANCH   1  17
TORSDOF 8
ENDMDL
MODEL 5
REMARK VINA RESULT:    -3.839     18.260     20.064
REMARK INTER + INTRA:          -6.046
REMARK INTER:                  -5.723
REMARK INTRA:                  -0.323
REMARK UNBOUND:                -0.523
REMARK  Name = 31289
REMARK  8 active torsions:
REMARK  status: ('A' for Active; 'I' for Inactive)
REMARK    1  A    between atoms: C_2  and  C_3
REMARK    2  A    between atoms: C_2  and  C_4
REMARK    3  A    between atoms: C_3  and  C_5
REMARK    4  A    between atoms: C_4  and  C_6
REMARK    5  A    between atoms: C_5  and  C_7
REMARK    6  A    between atoms: C_6  and  C_8
REMARK    7  A    between atoms: C_7  and  C_9
REMARK    8  A    between atoms: C_8  and  C_10
REMARK                            x       y       z     vdW  Elec       q    Type
REMARK                         _______ _______ _______ _____ _____    ______ ____
ROOT
ATOM      1  C   UNL     1       8.565 -12.033  -0.972  0.00  0.00    +0.000 C 
ATOM      2  H   UNL     1       8.194 -12.693  -1.765  0.00  0.00    +0.000 HD
ATOM      3  H   UNL     1       9.044 -12.671  -0.219  0.00  0.00    +0.000 HD
ENDROOT
BRANCH   1   4
ATOM      4  C   UNL     1       9.600 -11.067  -1.552  0.00  0.00    +0.000 C 
ATOM      5  H   UNL     1      10.593 -11.532  -1.509  0.00  0.00    +0.000 HD
ATOM      6  H   UNL     1       9.377 -10.894  -2.613  0.00  0.00    +0.000 HD
BRANCH   4   7
ATOM      7  C   UNL     1       9.647  -9.718  -0.829  0.00  0.00    +0.000 C 
ATOM      8  H   UNL     1       8.669  -9.228  -0.919  0.00  0.00    +0.000 HD
ATOM      9  H   UNL     1       9.815  -9.896   0.240  0.00  0.00    +0.000 HD
BRANCH   7  10
ATOM     10  C   UNL     1      10.731  -8.781  -1.363  0.00  0.00    +0.000 C 
ATOM     11  H   UNL     1      10.268  -7.896  -1.814  0.00  0.00    +0.000 HD
ATOM     12  H   UNL     1      11.360  -8.432  -0.535  0.00  0.00    +0.000 HD
BRANCH  10  13
ATOM     13  C   UNL     1      11.600  -9.473  -2.401  0.00  0.00    +0.000 C 
ATOM     14  H   UNL     1      12.516  -9.866  -1.948  0.00  0.00    +0.000 HD
ATOM     15  H   UNL     1      11.058 -10.310  -2.852  0.00  0.00    +0.000 HD
ATOM     16  H   UNL     1      11.881  -8.781  -3.202  0.00  0.00    +0.000 HD
ENDBRANCH  10  13
ENDBRANCH   7  10
ENDBRANCH   4   7
ENDBRANCH   1   4
BRANCH   1  17
ATOM     17  C   UNL     1       7.395 -11.277  -0.338  0.00  0.00    +0.000 C 
ATOM     18  H   UNL     1       7.746 -10.317   0.059  0.00  0.00    +0.000 HD
ATOM     19  H   UNL     1       6.642 -11.056  -1.103  0.00  0.00    +0.000 HD
BRANCH  17  20
ATOM     20  C   UNL     1       6.756 -12.090   0.792  0.00  0.00    +0.000 C 
ATOM     21  H   UNL     1       7.263 -13.059   0.880  0.00  0.00    +0.000 HD
ATOM     22  H   UNL     1       6.908 -11.573   1.748  0.00  0.00    +0.000 HD
BRANCH  20  23
ATOM     23  C   UNL     1       5.263 -12.321   0.572  0.00  0.00    +0.000 C 
ATOM     24  H   UNL     1       5.016 -13.377   0.724  0.00  0.00    +0.000 HD
ATOM     25  H   UNL     1       4.683 -11.732   1.292  0.00  0.00    +0.000 HD
BRANCH  23  27
ATOM     26  O   UNL     1       4.417 -12.734  -1.669  0.00  0.00    +0.000 OA
ATOM     27  C   UNL     1       4.781 -11.940  -0.809  0.00  0.00    +0.000 C 
ATOM     28  H   UNL     1       4.760 -10.855  -1.009  0.00  0.00    +0.000 HD
ENDBRANCH  23  27
ENDBRANCH  20  23
ENDBRANCH  17  20
ENDBRANCH   1  17
TORSDOF 8
ENDMDL
MODEL 6
REMARK VINA RESULT:    -3.820     20.895     22.571
REMARK INTER + INTRA:          -6.018
REMARK INTER:                  -5.751
REMARK INTRA:                  -0.267
REMARK UNBOUND:                -0.523
REMARK  Name = 31289
REMARK  8 active torsions:
REMARK  status: ('A' for Active; 'I' for Inactive)
REMARK    1  A    between atoms: C_2  and  C_3
REMARK    2  A    between atoms: C_2  and  C_4
REMARK    3  A    between atoms: C_3  and  C_5
REMARK    4  A    between atoms: C_4  and  C_6
REMARK    5  A    between atoms: C_5  and  C_7
REMARK    6  A    between atoms: C_6  and  C_8
REMARK    7  A    between atoms: C_7  and  C_9
REMARK    8  A    between atoms: C_8  and  C_10
REMARK                            x       y       z     vdW  Elec       q    Type
REMARK                         _______ _______ _______ _____ _____    ______ ____
ROOT
ATOM      1  C   UNL     1      11.977  -9.520  -2.561  0.00  0.00    +0.000 C 
ATOM      2  H   UNL     1      11.747  -8.676  -3.222  0.00  0.00    +0.000 HD
ATOM      3  H   UNL     1      12.792  -9.201  -1.900  0.00  0.00    +0.000 HD
ENDROOT
BRANCH   1   4
ATOM      4  C   UNL     1      10.746  -9.863  -1.721  0.00  0.00    +0.000 C 
ATOM      5  H   UNL     1       9.997 -10.349  -2.358  0.00  0.00    +0.000 HD
ATOM      6  H   UNL     1      11.027 -10.593  -0.951  0.00  0.00    +0.000 HD
BRANCH   4   7
ATOM      7  C   UNL     1      10.112  -8.645  -1.042  0.00  0.00    +0.000 C 
ATOM      8  H   UNL     1      10.815  -8.239  -0.304  0.00  0.00    +0.000 HD
ATOM      9  H   UNL     1       9.957  -7.863  -1.795  0.00  0.00    +0.000 HD
BRANCH   7  10
ATOM     10  C   UNL     1       8.783  -8.957  -0.354  0.00  0.00    +0.000 C 
ATOM     11  H   UNL     1       8.881  -8.812   0.728  0.00  0.00    +0.000 HD
ATOM     12  H   UNL     1       8.011  -8.263  -0.707  0.00  0.00    +0.000 HD
BRANCH  10  13
ATOM     13  C   UNL     1       8.340 -10.387  -0.627  0.00  0.00    +0.000 C 
ATOM     14  H   UNL     1       9.182 -11.081  -0.545  0.00  0.00    +0.000 HD
ATOM     15  H   UNL     1       7.577 -10.691   0.095  0.00  0.00    +0.000 HD
ATOM     16  H   UNL     1       7.913 -10.480  -1.631  0.00  0.00    +0.000 HD
ENDBRANCH  10  13
ENDBRANCH   7  10
ENDBRANCH   4   7
ENDBRANCH   1   4
BRANCH   1  17
ATOM     17  C   UNL     1      12.432 -10.720  -3.396  0.00  0.00    +0.000 C 
ATOM     18  H   UNL     1      12.145 -11.651  -2.893  0.00  0.00    +0.000 HD
ATOM     19  H   UNL     1      11.923 -10.706  -4.367  0.00  0.00    +0.000 HD
BRANCH  17  20
ATOM     20  C   UNL     1      13.949 -10.705  -3.610  0.00  0.00    +0.000 C 
ATOM     21  H   UNL     1      14.457 -10.758  -2.640  0.00  0.00    +0.000 HD
ATOM     22  H   UNL     1      14.249 -11.602  -4.167  0.00  0.00    +0.000 HD
BRANCH  20  23
ATOM     23  C   UNL     1      14.419  -9.461  -4.359  0.00  0.00    +0.000 C 
ATOM     24  H   UNL     1      14.150  -8.558  -3.801  0.00  0.00    +0.000 HD
ATOM     25  H   UNL     1      15.510  -9.479  -4.465  0.00  0.00    +0.000 HD
BRANCH  23  27
ATOM     26  O   UNL     1      13.022  -8.470  -6.085  0.00  0.00    +0.000 OA
ATOM     27  C   UNL     1      13.836  -9.323  -5.746  0.00  0.00    +0.000 C 
ATOM     28  H   UNL     1      14.209 -10.058  -6.480  0.00  0.00    +0.000 HD
ENDBRANCH  23  27
ENDBRANCH  20  23
ENDBRANCH  17  20
ENDBRANCH   1  17
TORSDOF 8
ENDMDL
MODEL 7
REMARK VINA RESULT:    -3.799     24.326     25.573
REMARK INTER + INTRA:          -5.988
REMARK INTER:                  -5.421
REMARK INTRA:                  -0.567
REMARK UNBOUND:                -0.523
REMARK  Name = 31289
REMARK  8 active torsions:
REMARK  status: ('A' for Active; 'I' for Inactive)
REMARK    1  A    between atoms: C_2  and  C_3
REMARK    2  A    between atoms: C_2  and  C_4
REMARK    3  A    between atoms: C_3  and  C_5
REMARK    4  A    between atoms: C_4  and  C_6
REMARK    5  A    between atoms: C_5  and  C_7
REMARK    6  A    between atoms: C_6  and  C_8
REMARK    7  A    between atoms: C_7  and  C_9
REMARK    8  A    between atoms: C_8  and  C_10
REMARK                            x       y       z     vdW  Elec       q    Type
REMARK                         _______ _______ _______ _____ _____    ______ ____
ROOT
ATOM      1  C   UNL     1      -5.493  -6.371  -9.524  0.00  0.00    +0.000 C 
ATOM      2  H   UNL     1      -5.769  -5.587 -10.239  0.00  0.00    +0.000 HD
ATOM      3  H   UNL     1      -5.833  -7.326  -9.944  0.00  0.00    +0.000 HD
ENDROOT
BRANCH   1   4
ATOM      4  C   UNL     1      -3.972  -6.400  -9.359  0.00  0.00    +0.000 C 
ATOM      5  H   UNL     1      -3.535  -5.538  -9.878  0.00  0.00    +0.000 HD
ATOM      6  H   UNL     1      -3.722  -6.290  -8.296  0.00  0.00    +0.000 HD
BRANCH   4   7
ATOM      7  C   UNL     1      -3.326  -7.684  -9.889  0.00  0.00    +0.000 C 
ATOM      8  H   UNL     1      -3.906  -8.052 -10.745  0.00  0.00    +0.000 HD
ATOM      9  H   UNL     1      -2.324  -7.445 -10.266  0.00  0.00    +0.000 HD
BRANCH   7  10
ATOM     10  C   UNL     1      -3.222  -8.790  -8.838  0.00  0.00    +0.000 C 
ATOM     11  H   UNL     1      -2.173  -9.073  -8.700  0.00  0.00    +0.000 HD
ATOM     12  H   UNL     1      -3.590  -8.420  -7.874  0.00  0.00    +0.000 HD
BRANCH  10  13
ATOM     13  C   UNL     1      -4.020 -10.019  -9.247  0.00  0.00    +0.000 C 
ATOM     14  H   UNL     1      -4.691  -9.791 -10.082  0.00  0.00    +0.000 HD
ATOM     15  H   UNL     1      -3.346 -10.821  -9.561  0.00  0.00    +0.000 HD
ATOM     16  H   UNL     1      -4.624 -10.390  -8.412  0.00  0.00    +0.000 HD
ENDBRANCH  10  13
ENDBRANCH   7  10
ENDBRANCH   4   7
ENDBRANCH   1   4
BRANCH   1  17
ATOM     17  C   UNL     1      -6.191  -6.119  -8.186  0.00  0.00    +0.000 C 
ATOM     18  H   UNL     1      -5.489  -5.655  -7.483  0.00  0.00    +0.000 HD
ATOM     19  H   UNL     1      -7.019  -5.415  -8.330  0.00  0.00    +0.000 HD
BRANCH  17  20
ATOM     20  C   UNL     1      -6.725  -7.423  -7.584  0.00  0.00    +0.000 C 
ATOM     21  H   UNL     1      -7.775  -7.556  -7.870  0.00  0.00    +0.000 HD
ATOM     22  H   UNL     1      -6.177  -8.274  -8.008  0.00  0.00    +0.000 HD
BRANCH  20  23
ATOM     23  C   UNL     1      -6.610  -7.453  -6.062  0.00  0.00    +0.000 C 
ATOM     24  H   UNL     1      -5.871  -6.719  -5.723  0.00  0.00    +0.000 HD
ATOM     25  H   UNL     1      -7.574  -7.195  -5.609  0.00  0.00    +0.000 HD
BRANCH  23  27
ATOM     26  O   UNL     1      -5.214  -9.434  -5.863  0.00  0.00    +0.000 OA
ATOM     27  C   UNL     1      -6.197  -8.796  -5.504  0.00  0.00    +0.000 C 
ATOM     28  H   UNL     1      -6.854  -9.187  -4.707  0.00  0.00    +0.000 HD
ENDBRANCH  23  27
ENDBRANCH  20  23
ENDBRANCH  17  20
ENDBRANCH   1  17
TORSDOF 8
ENDMDL
MODEL 8
REMARK VINA RESULT:    -3.778     19.123     20.537
REMARK INTER + INTRA:          -5.958
REMARK INTER:                  -5.490
REMARK INTRA:                  -0.468
REMARK UNBOUND:                -0.523
REMARK  Name = 31289
REMARK  8 active torsions:
REMARK  status: ('A' for Active; 'I' for Inactive)
REMARK    1  A    between atoms: C_2  and  C_3
REMARK    2  A    between atoms: C_2  and  C_4
REMARK    3  A    between atoms: C_3  and  C_5
REMARK    4  A    between atoms: C_4  and  C_6
REMARK    5  A    between atoms: C_5  and  C_7
REMARK    6  A    between atoms: C_6  and  C_8
REMARK    7  A    between atoms: C_7  and  C_9
REMARK    8  A    between atoms: C_8  and  C_10
REMARK                            x       y       z     vdW  Elec       q    Type
REMARK                         _______ _______ _______ _____ _____    ______ ____
ROOT
ATOM      1  C   UNL     1       8.650 -12.172  -0.429  0.00  0.00    +0.000 C 
ATOM      2  H   UNL     1       8.990 -12.474   0.569  0.00  0.00    +0.000 HD
ATOM      3  H   UNL     1       9.538 -11.865  -0.994  0.00  0.00    +0.000 HD
ENDROOT
BRANCH   1   4
ATOM      4  C   UNL     1       7.990 -13.363  -1.127  0.00  0.00    +0.000 C 
ATOM      5  H   UNL     1       7.972 -14.220  -0.442  0.00  0.00    +0.000 HD
ATOM      6  H   UNL     1       6.944 -13.116  -1.351  0.00  0.00    +0.000 HD
BRANCH   4   7
ATOM      7  C   UNL     1       8.691 -13.774  -2.425  0.00  0.00    +0.000 C 
ATOM      8  H   UNL     1       9.263 -14.693  -2.249  0.00  0.00    +0.000 HD
ATOM      9  H   UNL     1       7.928 -14.014  -3.177  0.00  0.00    +0.000 HD
BRANCH   7  10
ATOM     10  C   UNL     1       9.624 -12.696  -2.977  0.00  0.00    +0.000 C 
ATOM     11  H   UNL     1       9.036 -11.896  -3.439  0.00  0.00    +0.000 HD
ATOM     12  H   UNL     1      10.198 -12.247  -2.158  0.00  0.00    +0.000 HD
BRANCH  10  13
ATOM     13  C   UNL     1      10.582 -13.270  -4.011  0.00  0.00    +0.000 C 
ATOM     14  H   UNL     1      10.191 -14.201  -4.433  0.00  0.00    +0.000 HD
ATOM     15  H   UNL     1      10.727 -12.559  -4.829  0.00  0.00    +0.000 HD
ATOM     16  H   UNL     1      11.561 -13.478  -3.565  0.00  0.00    +0.000 HD
ENDBRANCH  10  13
ENDBRANCH   7  10
ENDBRANCH   4   7
ENDBRANCH   1   4
BRANCH   1  17
ATOM     17  C   UNL     1       7.682 -10.992  -0.310  0.00  0.00    +0.000 C 
ATOM     18  H   UNL     1       6.854 -11.119  -1.018  0.00  0.00    +0.000 HD
ATOM     19  H   UNL     1       7.247 -10.973   0.696  0.00  0.00    +0.000 HD
BRANCH  17  20
ATOM     20  C   UNL     1       8.390  -9.663  -0.590  0.00  0.00    +0.000 C 
ATOM     21  H   UNL     1       8.046  -9.260  -1.551  0.00  0.00    +0.000 HD
ATOM     22  H   UNL     1       8.106  -8.929   0.174  0.00  0.00    +0.000 HD
BRANCH  20  23
ATOM     23  C   UNL     1       9.909  -9.806  -0.618  0.00  0.00    +0.000 C 
ATOM     24  H   UNL     1      10.298  -9.927   0.399  0.00  0.00    +0.000 HD
ATOM     25  H   UNL     1      10.190 -10.695  -1.195  0.00  0.00    +0.000 HD
BRANCH  23  27
ATOM     26  O   UNL     1      10.202  -7.476  -1.249  0.00  0.00    +0.000 OA
ATOM     27  C   UNL     1      10.625  -8.627  -1.236  0.00  0.00    +0.000 C 
ATOM     28  H   UNL     1      11.605  -8.865  -1.686  0.00  0.00    +0.000 HD
ENDBRANCH  23  27
ENDBRANCH  20  23
ENDBRANCH  17  20
ENDBRANCH   1  17
TORSDOF 8
ENDMDL
MODEL 9
REMARK VINA RESULT:    -3.767     23.808     26.196
REMARK INTER + INTRA:          -5.941
REMARK INTER:                  -5.572
REMARK INTRA:                  -0.369
REMARK UNBOUND:                -0.523
REMARK  Name = 31289
REMARK  8 active torsions:
REMARK  status: ('A' for Active; 'I' for Inactive)
REMARK    1  A    between atoms: C_2  and  C_3
REMARK    2  A    between atoms: C_2  and  C_4
REMARK    3  A    between atoms: C_3  and  C_5
REMARK    4  A    between atoms: C_4  and  C_6
REMARK    5  A    between atoms: C_5  and  C_7
REMARK    6  A    between atoms: C_6  and  C_8
REMARK    7  A    between atoms: C_7  and  C_9
REMARK    8  A    between atoms: C_8  and  C_10
REMARK                            x       y       z     vdW  Elec       q    Type
REMARK                         _______ _______ _______ _____ _____    ______ ____
ROOT
ATOM      1  C   UNL     1       7.368  13.499  -0.286  0.00  0.00    +0.000 C 
ATOM      2  H   UNL     1       6.834  14.415  -0.567  0.00  0.00    +0.000 HD
ATOM      3  H   UNL     1       7.733  13.638   0.739  0.00  0.00    +0.000 HD
ENDROOT
BRANCH   1   4
ATOM      4  C   UNL     1       6.405  12.311  -0.327  0.00  0.00    +0.000 C 
ATOM      5  H   UNL     1       5.993  12.215  -1.339  0.00  0.00    +0.000 HD
ATOM      6  H   UNL     1       6.962  11.388  -0.123  0.00  0.00    +0.000 HD
BRANCH   4   7
ATOM      7  C   UNL     1       5.253  12.427   0.675  0.00  0.00    +0.000 C 
ATOM      8  H   UNL     1       5.080  13.486   0.904  0.00  0.00    +0.000 HD
ATOM      9  H   UNL     1       4.336  12.051   0.203  0.00  0.00    +0.000 HD
BRANCH   7  10
ATOM     10  C   UNL     1       5.501  11.664   1.977  0.00  0.00    +0.000 C 
ATOM     11  H   UNL     1       4.581  11.162   2.295  0.00  0.00    +0.000 HD
ATOM     12  H   UNL     1       6.257  10.887   1.812  0.00  0.00    +0.000 HD
BRANCH  10  13
ATOM     13  C   UNL     1       5.968  12.597   3.084  0.00  0.00    +0.000 C 
ATOM     14  H   UNL     1       5.654  13.627   2.888  0.00  0.00    +0.000 HD
ATOM     15  H   UNL     1       5.542  12.288   4.043  0.00  0.00    +0.000 HD
ATOM     16  H   UNL     1       7.059  12.581   3.176  0.00  0.00    +0.000 HD
ENDBRANCH  10  13
ENDBRANCH   7  10
ENDBRANCH   4   7
ENDBRANCH   1   4
BRANCH   1  17
ATOM     17  C   UNL     1       8.555  13.284  -1.229  0.00  0.00    +0.000 C 
ATOM     18  H   UNL     1       8.602  14.101  -1.959  0.00  0.00    +0.000 HD
ATOM     19  H   UNL     1       9.489  13.308  -0.655  0.00  0.00    +0.000 HD
BRANCH  17  20
ATOM     20  C   UNL     1       8.440  11.948  -1.970  0.00  0.00    +0.000 C 
ATOM     21  H   UNL     1       9.047  11.191  -1.457  0.00  0.00    +0.000 HD
ATOM     22  H   UNL     1       7.403  11.593  -1.928  0.00  0.00    +0.000 HD
BRANCH  20  23
ATOM     23  C   UNL     1       8.885  12.048  -3.426  0.00  0.00    +0.000 C 
ATOM     24  H   UNL     1       9.946  12.316  -3.481  0.00  0.00    +0.000 HD
ATOM     25  H   UNL     1       8.755  11.081  -3.925  0.00  0.00    +0.000 HD
BRANCH  23  27
ATOM     26  O   UNL     1       6.903  13.215  -4.215  0.00  0.00    +0.000 OA
ATOM     27  C   UNL     1       8.121  13.074  -4.232  0.00  0.00    +0.000 C 
ATOM     28  H   UNL     1       8.749  13.732  -4.858  0.00  0.00    +0.000 HD
ENDBRANCH  23  27
ENDBRANCH  20  23
ENDBRANCH  17  20
ENDBRANCH   1  17
TORSDOF 8
ENDMDL
MODEL 10
REMARK VINA RESULT:    -3.591     25.092     26.192
REMARK INTER + INTRA:          -5.689
REMARK INTER:                  -5.166
REMARK INTRA:                  -0.523
REMARK UNBOUND:                -0.523
REMARK  Name = 31289
REMARK  8 active torsions:
REMARK  status: ('A' for Active; 'I' for Inactive)
REMARK    1  A    between atoms: C_2  and  C_3
REMARK    2  A    between atoms: C_2  and  C_4
REMARK    3  A    between atoms: C_3  and  C_5
REMARK    4  A    between atoms: C_4  and  C_6
REMARK    5  A    between atoms: C_5  and  C_7
REMARK    6  A    between atoms: C_6  and  C_8
REMARK    7  A    between atoms: C_7  and  C_9
REMARK    8  A    between atoms: C_8  and  C_10
REMARK                            x       y       z     vdW  Elec       q    Type
REMARK                         _______ _______ _______ _____ _____    ______ ____
ROOT
ATOM      1  C   UNL     1      -4.017  -7.714 -10.677  0.00  0.00    +0.000 C 
ATOM      2  H   UNL     1      -3.498  -7.249 -11.524  0.00  0.00    +0.000 HD
ATOM      3  H   UNL     1      -4.951  -8.140 -11.065  0.00  0.00    +0.000 HD
ENDROOT
BRANCH   1   4
ATOM      4  C   UNL     1      -3.150  -8.834 -10.098  0.00  0.00    +0.000 C 
ATOM      5  H   UNL     1      -2.613  -9.334 -10.914  0.00  0.00    +0.000 HD
ATOM      6  H   UNL     1      -2.389  -8.397  -9.439  0.00  0.00    +0.000 HD
BRANCH   4   7
ATOM      7  C   UNL     1      -3.948  -9.877  -9.310  0.00  0.00    +0.000 C 
ATOM      8  H   UNL     1      -5.018  -9.739  -9.512  0.00  0.00    +0.000 HD
ATOM      9  H   UNL     1      -3.683 -10.876  -9.678  0.00  0.00    +0.000 HD
BRANCH   7  10
ATOM     10  C   UNL     1      -3.708  -9.812  -7.801  0.00  0.00    +0.000 C 
ATOM     11  H   UNL     1      -3.210 -10.728  -7.465  0.00  0.00    +0.000 HD
ATOM     12  H   UNL     1      -3.040  -8.974  -7.568  0.00  0.00    +0.000 HD
BRANCH  10  13
ATOM     13  C   UNL     1      -5.014  -9.645  -7.039  0.00  0.00    +0.000 C 
ATOM     14  H   UNL     1      -5.122  -8.622  -6.666  0.00  0.00    +0.000 HD
ATOM     15  H   UNL     1      -5.863  -9.861  -7.692  0.00  0.00    +0.000 HD
ATOM     16  H   UNL     1      -5.059 -10.330  -6.185  0.00  0.00    +0.000 HD
ENDBRANCH  10  13
ENDBRANCH   7  10
ENDBRANCH   4   7
ENDBRANCH   1   4
BRANCH   1  17
ATOM     17  C   UNL     1      -4.335  -6.655  -9.619  0.00  0.00    +0.000 C 
ATOM     18  H   UNL     1      -3.991  -6.998  -8.636  0.00  0.00    +0.000 HD
ATOM     19  H   UNL     1      -3.790  -5.731  -9.849  0.00  0.00    +0.000 HD
BRANCH  17  20
ATOM     20  C   UNL     1      -5.838  -6.364  -9.558  0.00  0.00    +0.000 C 
ATOM     21  H   UNL     1      -6.083  -5.554 -10.255  0.00  0.00    +0.000 HD
ATOM     22  H   UNL     1      -6.396  -7.245  -9.898  0.00  0.00    +0.000 HD
BRANCH  20  23
ATOM     23  C   UNL     1      -6.300  -5.979  -8.155  0.00  0.00    +0.000 C 
ATOM     24  H   UNL     1      -5.965  -6.726  -7.427  0.00  0.00    +0.000 HD
ATOM     25  H   UNL     1      -5.869  -5.013  -7.871  0.00  0.00    +0.000 HD
BRANCH  23  27
ATOM     26  O   UNL     1      -8.385  -4.899  -7.525  0.00  0.00    +0.000 OA
ATOM     27  C   UNL     1      -7.800  -5.858  -8.015  0.00  0.00    +0.000 C 
ATOM     28  H   UNL     1      -8.372  -6.717  -8.409  0.00  0.00    +0.000 HD
ENDBRANCH  23  27
ENDBRANCH  20  23
ENDBRANCH  17  20
ENDBRANCH   1  17
TORSDOF 8
ENDMDL
