MODEL 1
REMARK VINA RESULT:    -4.246      0.000      0.000
REMARK INTER + INTRA:          -6.368
REMARK INTER:                  -5.927
REMARK INTRA:                  -0.441
REMARK UNBOUND:                -0.384
REMARK  Name = 379
REMARK  8 active torsions:
REMARK  status: ('A' for Active; 'I' for Inactive)
REMARK    1  A    between atoms: O_1  and  C_10
REMARK    2  A    between atoms: C_3  and  C_4
REMARK    3  A    between atoms: C_3  and  C_5
REMARK    4  A    between atoms: C_4  and  C_6
REMARK    5  A    between atoms: C_5  and  C_7
REMARK    6  A    between atoms: C_6  and  C_8
REMARK    7  A    between atoms: C_7  and  C_9
REMARK    8  A    between atoms: C_8  and  C_10
REMARK                            x       y       z     vdW  Elec       q    Type
REMARK                         _______ _______ _______ _____ _____    ______ ____
ROOT
ATOM      1  C   UNL     1       4.358  -2.312  -1.441  0.00  0.00    +0.000 C 
ATOM      2  H   UNL     1       4.956  -1.458  -1.099  0.00  0.00    +0.000 HD
ATOM      3  H   UNL     1       3.676  -1.932  -2.211  0.00  0.00    +0.000 HD
ENDROOT
BRANCH   1   4
ATOM      4  C   UNL     1       5.292  -3.349  -2.073  0.00  0.00    +0.000 C 
ATOM      5  H   UNL     1       5.323  -4.235  -1.426  0.00  0.00    +0.000 HD
ATOM      6  H   UNL     1       4.853  -3.677  -3.025  0.00  0.00    +0.000 HD
BRANCH   4   7
ATOM      7  C   UNL     1       6.727  -2.883  -2.334  0.00  0.00    +0.000 C 
ATOM      8  H   UNL     1       7.167  -3.507  -3.123  0.00  0.00    +0.000 HD
ATOM      9  H   UNL     1       6.704  -1.860  -2.729  0.00  0.00    +0.000 HD
BRANCH   7  10
ATOM     10  C   UNL     1       7.618  -2.933  -1.094  0.00  0.00    +0.000 C 
ATOM     11  H   UNL     1       7.207  -3.646  -0.370  0.00  0.00    +0.000 HD
ATOM     12  H   UNL     1       7.664  -1.941  -0.632  0.00  0.00    +0.000 HD
BRANCH  10  14
ATOM     13  O   UNL     1       9.949  -2.613  -1.722  0.00  0.00    +0.000 OA
ATOM     14  C   UNL     1       9.028  -3.363  -1.430  0.00  0.00    +0.000 C 
BRANCH  14  15
ATOM     15  O   UNL     1       9.163  -4.713  -1.366  0.00  0.00    +0.000 OA
ATOM     16  H   UNL     1       8.646  -5.097  -0.626  0.00  0.00    +0.000 HD
ENDBRANCH  14  15
ENDBRANCH  10  14
ENDBRANCH   7  10
ENDBRANCH   4   7
ENDBRANCH   1   4
BRANCH   1  17
ATOM     17  C   UNL     1       3.541  -2.862  -0.270  0.00  0.00    +0.000 C 
ATOM     18  H   UNL     1       3.286  -2.045   0.416  0.00  0.00    +0.000 HD
ATOM     19  H   UNL     1       2.598  -3.275  -0.646  0.00  0.00    +0.000 HD
BRANCH  17  20
ATOM     20  C   UNL     1       4.314  -3.946   0.484  0.00  0.00    +0.000 C 
ATOM     21  H   UNL     1       3.623  -4.716   0.842  0.00  0.00    +0.000 HD
ATOM     22  H   UNL     1       5.024  -4.436  -0.193  0.00  0.00    +0.000 HD
BRANCH  20  23
ATOM     23  C   UNL     1       5.071  -3.367   1.669  0.00  0.00    +0.000 C 
ATOM     24  H   UNL     1       4.607  -2.437   2.015  0.00  0.00    +0.000 HD
ATOM     25  H   UNL     1       6.105  -3.145   1.387  0.00  0.00    +0.000 HD
ATOM     26  H   UNL     1       5.090  -4.073   2.505  0.00  0.00    +0.000 HD
ENDBRANCH  20  23
ENDBRANCH  17  20
ENDBRANCH   1  17
TORSDOF 8
ENDMDL
MODEL 2
REMARK VINA RESULT:    -4.122      1.669      2.675
REMARK INTER + INTRA:          -6.194
REMARK INTER:                  -5.878
REMARK INTRA:                  -0.316
REMARK UNBOUND:                -0.384
REMARK  Name = 379
REMARK  8 active torsions:
REMARK  status: ('A' for Active; 'I' for Inactive)
REMARK    1  A    between atoms: O_1  and  C_10
REMARK    2  A    between atoms: C_3  and  C_4
REMARK    3  A    between atoms: C_3  and  C_5
REMARK    4  A    between atoms: C_4  and  C_6
REMARK    5  A    between atoms: C_5  and  C_7
REMARK    6  A    between atoms: C_6  and  C_8
REMARK    7  A    between atoms: C_7  and  C_9
REMARK    8  A    between atoms: C_8  and  C_10
REMARK                            x       y       z     vdW  Elec       q    Type
REMARK                         _______ _______ _______ _____ _____    ______ ____
ROOT
ATOM      1  C   UNL     1       6.084  -2.926   0.519  0.00  0.00    +0.000 C 
ATOM      2  H   UNL     1       5.855  -3.535   1.402  0.00  0.00    +0.000 HD
ATOM      3  H   UNL     1       5.624  -1.944   0.684  0.00  0.00    +0.000 HD
ENDROOT
BRANCH   1   4
ATOM      4  C   UNL     1       7.603  -2.750   0.419  0.00  0.00    +0.000 C 
ATOM      5  H   UNL     1       8.023  -2.740   1.434  0.00  0.00    +0.000 HD
ATOM      6  H   UNL     1       8.023  -3.633  -0.080  0.00  0.00    +0.000 HD
BRANCH   4   7
ATOM      7  C   UNL     1       8.082  -1.498  -0.321  0.00  0.00    +0.000 C 
ATOM      8  H   UNL     1       7.309  -1.188  -1.035  0.00  0.00    +0.000 HD
ATOM      9  H   UNL     1       8.185  -0.676   0.398  0.00  0.00    +0.000 HD
BRANCH   7  10
ATOM     10  C   UNL     1       9.403  -1.698  -1.062  0.00  0.00    +0.000 C 
ATOM     11  H   UNL     1      10.020  -2.431  -0.529  0.00  0.00    +0.000 HD
ATOM     12  H   UNL     1       9.944  -0.747  -1.116  0.00  0.00    +0.000 HD
BRANCH  10  14
ATOM     13  O   UNL     1       8.117  -2.560  -2.941  0.00  0.00    +0.000 OA
ATOM     14  C   UNL     1       9.187  -2.200  -2.472  0.00  0.00    +0.000 C 
BRANCH  14  15
ATOM     15  O   UNL     1      10.346  -2.201  -3.181  0.00  0.00    +0.000 OA
ATOM     16  H   UNL     1      10.252  -2.678  -4.033  0.00  0.00    +0.000 HD
ENDBRANCH  14  15
ENDBRANCH  10  14
ENDBRANCH   7  10
ENDBRANCH   4   7
ENDBRANCH   1   4
BRANCH   1  17
ATOM     17  C   UNL     1       5.463  -3.573  -0.720  0.00  0.00    +0.000 C 
ATOM     18  H   UNL     1       6.257  -3.971  -1.364  0.00  0.00    +0.000 HD
ATOM     19  H   UNL     1       4.838  -4.419  -0.415  0.00  0.00    +0.000 HD
BRANCH  17  20
ATOM     20  C   UNL     1       4.621  -2.566  -1.506  0.00  0.00    +0.000 C 
ATOM     21  H   UNL     1       5.075  -1.571  -1.444  0.00  0.00    +0.000 HD
ATOM     22  H   UNL     1       4.596  -2.847  -2.565  0.00  0.00    +0.000 HD
BRANCH  20  23
ATOM     23  C   UNL     1       3.198  -2.496  -0.973  0.00  0.00    +0.000 C 
ATOM     24  H   UNL     1       3.166  -1.987  -0.004  0.00  0.00    +0.000 HD
ATOM     25  H   UNL     1       2.792  -3.503  -0.843  0.00  0.00    +0.000 HD
ATOM     26  H   UNL     1       2.546  -1.954  -1.667  0.00  0.00    +0.000 HD
ENDBRANCH  20  23
ENDBRANCH  17  20
ENDBRANCH   1  17
TORSDOF 8
ENDMDL
MODEL 3
REMARK VINA RESULT:    -4.085      7.342      9.220
REMARK INTER + INTRA:          -6.141
REMARK INTER:                  -5.763
REMARK INTRA:                  -0.378
REMARK UNBOUND:                -0.384
REMARK  Name = 379
REMARK  8 active torsions:
REMARK  status: ('A' for Active; 'I' for Inactive)
REMARK    1  A    between atoms: O_1  and  C_10
REMARK    2  A    between atoms: C_3  and  C_4
REMARK    3  A    between atoms: C_3  and  C_5
REMARK    4  A    between atoms: C_4  and  C_6
REMARK    5  A    between atoms: C_5  and  C_7
REMARK    6  A    between atoms: C_6  and  C_8
REMARK    7  A    between atoms: C_7  and  C_9
REMARK    8  A    between atoms: C_8  and  C_10
REMARK                            x       y       z     vdW  Elec       q    Type
REMARK                         _______ _______ _______ _____ _____    ______ ____
ROOT
ATOM      1  C   UNL     1      11.780 -10.964  -2.988  0.00  0.00    +0.000 C 
ATOM      2  H   UNL     1      12.687 -11.537  -2.755  0.00  0.00    +0.000 HD
ATOM      3  H   UNL     1      10.970 -11.396  -2.388  0.00  0.00    +0.000 HD
ENDROOT
BRANCH   1   4
ATOM      4  C   UNL     1      11.991  -9.508  -2.560  0.00  0.00    +0.000 C 
ATOM      5  H   UNL     1      12.921  -9.444  -1.980  0.00  0.00    +0.000 HD
ATOM      6  H   UNL     1      12.147  -8.900  -3.461  0.00  0.00    +0.000 HD
BRANCH   4   7
ATOM      7  C   UNL     1      10.858  -8.883  -1.740  0.00  0.00    +0.000 C 
ATOM      8  H   UNL     1      11.292  -8.223  -0.978  0.00  0.00    +0.000 HD
ATOM      9  H   UNL     1      10.256  -8.242  -2.395  0.00  0.00    +0.000 HD
BRANCH   7  10
ATOM     10  C   UNL     1       9.957  -9.915  -1.063  0.00  0.00    +0.000 C 
ATOM     11  H   UNL     1      10.508 -10.418  -0.260  0.00  0.00    +0.000 HD
ATOM     12  H   UNL     1       9.634 -10.660  -1.796  0.00  0.00    +0.000 HD
BRANCH  10  14
ATOM     13  O   UNL     1       8.431  -8.092  -0.535  0.00  0.00    +0.000 OA
ATOM     14  C   UNL     1       8.725  -9.277  -0.462  0.00  0.00    +0.000 C 
BRANCH  14  15
ATOM     15  O   UNL     1       7.955 -10.194   0.181  0.00  0.00    +0.000 OA
ATOM     16  H   UNL     1       8.101 -11.100  -0.165  0.00  0.00    +0.000 HD
ENDBRANCH  14  15
ENDBRANCH  10  14
ENDBRANCH   7  10
ENDBRANCH   4   7
ENDBRANCH   1   4
BRANCH   1  17
ATOM     17  C   UNL     1      11.447 -11.120  -4.473  0.00  0.00    +0.000 C 
ATOM     18  H   UNL     1      10.946 -10.213  -4.834  0.00  0.00    +0.000 HD
ATOM     19  H   UNL     1      12.375 -11.227  -5.046  0.00  0.00    +0.000 HD
BRANCH  17  20
ATOM     20  C   UNL     1      10.549 -12.335  -4.713  0.00  0.00    +0.000 C 
ATOM     21  H   UNL     1       9.758 -12.079  -5.427  0.00  0.00    +0.000 HD
ATOM     22  H   UNL     1      11.135 -13.150  -5.155  0.00  0.00    +0.000 HD
BRANCH  20  23
ATOM     23  C   UNL     1       9.913 -12.821  -3.420  0.00  0.00    +0.000 C 
ATOM     24  H   UNL     1      10.603 -12.710  -2.577  0.00  0.00    +0.000 HD
ATOM     25  H   UNL     1       9.645 -13.878  -3.503  0.00  0.00    +0.000 HD
ATOM     26  H   UNL     1       9.002 -12.256  -3.195  0.00  0.00    +0.000 HD
ENDBRANCH  20  23
ENDBRANCH  17  20
ENDBRANCH   1  17
TORSDOF 8
ENDMDL
MODEL 4
REMARK VINA RESULT:    -4.039     22.324     23.988
REMARK INTER + INTRA:          -6.076
REMARK INTER:                  -5.842
REMARK INTRA:                  -0.234
REMARK UNBOUND:                -0.384
REMARK  Name = 379
REMARK  8 active torsions:
REMARK  status: ('A' for Active; 'I' for Inactive)
REMARK    1  A    between atoms: O_1  and  C_10
REMARK    2  A    between atoms: C_3  and  C_4
REMARK    3  A    between atoms: C_3  and  C_5
REMARK    4  A    between atoms: C_4  and  C_6
REMARK    5  A    between atoms: C_5  and  C_7
REMARK    6  A    between atoms: C_6  and  C_8
REMARK    7  A    between atoms: C_7  and  C_9
REMARK    8  A    between atoms: C_8  and  C_10
REMARK                            x       y       z     vdW  Elec       q    Type
REMARK                         _______ _______ _______ _____ _____    ______ ____
ROOT
ATOM      1  C   UNL     1     -12.968 -14.899   8.123  0.00  0.00    +0.000 C 
ATOM      2  H   UNL     1     -12.647 -13.851   8.089  0.00  0.00    +0.000 HD
ATOM      3  H   UNL     1     -13.136 -15.212   7.085  0.00  0.00    +0.000 HD
ENDROOT
BRANCH   1   4
ATOM      4  C   UNL     1     -11.838 -15.745   8.718  0.00  0.00    +0.000 C 
ATOM      5  H   UNL     1     -10.959 -15.103   8.866  0.00  0.00    +0.000 HD
ATOM      6  H   UNL     1     -12.144 -16.082   9.717  0.00  0.00    +0.000 HD
BRANCH   4   7
ATOM      7  C   UNL     1     -11.418 -16.968   7.899  0.00  0.00    +0.000 C 
ATOM      8  H   UNL     1     -12.210 -17.726   7.957  0.00  0.00    +0.000 HD
ATOM      9  H   UNL     1     -11.343 -16.682   6.843  0.00  0.00    +0.000 HD
BRANCH   7  10
ATOM     10  C   UNL     1     -10.096 -17.583   8.358  0.00  0.00    +0.000 C 
ATOM     11  H   UNL     1      -9.940 -18.544   7.856  0.00  0.00    +0.000 HD
ATOM     12  H   UNL     1     -10.121 -17.745   9.440  0.00  0.00    +0.000 HD
BRANCH  10  14
ATOM     13  O   UNL     1      -8.698 -16.163   6.959  0.00  0.00    +0.000 OA
ATOM     14  C   UNL     1      -8.919 -16.689   8.041  0.00  0.00    +0.000 C 
BRANCH  14  15
ATOM     15  O   UNL     1      -8.115 -16.525   9.124  0.00  0.00    +0.000 OA
ATOM     16  H   UNL     1      -8.318 -17.174   9.831  0.00  0.00    +0.000 HD
ENDBRANCH  14  15
ENDBRANCH  10  14
ENDBRANCH   7  10
ENDBRANCH   4   7
ENDBRANCH   1   4
BRANCH   1  17
ATOM     17  C   UNL     1     -14.282 -15.004   8.901  0.00  0.00    +0.000 C 
ATOM     18  H   UNL     1     -15.090 -14.542   8.320  0.00  0.00    +0.000 HD
ATOM     19  H   UNL     1     -14.543 -16.060   9.036  0.00  0.00    +0.000 HD
BRANCH  17  20
ATOM     20  C   UNL     1     -14.172 -14.321  10.265  0.00  0.00    +0.000 C 
ATOM     21  H   UNL     1     -14.772 -14.865  11.004  0.00  0.00    +0.000 HD
ATOM     22  H   UNL     1     -13.132 -14.345  10.611  0.00  0.00    +0.000 HD
BRANCH  20  23
ATOM     23  C   UNL     1     -14.647 -12.878  10.205  0.00  0.00    +0.000 C 
ATOM     24  H   UNL     1     -13.877 -12.228   9.778  0.00  0.00    +0.000 HD
ATOM     25  H   UNL     1     -14.880 -12.514  11.210  0.00  0.00    +0.000 HD
ATOM     26  H   UNL     1     -15.551 -12.788   9.594  0.00  0.00    +0.000 HD
ENDBRANCH  20  23
ENDBRANCH  17  20
ENDBRANCH   1  17
TORSDOF 8
ENDMDL
MODEL 5
REMARK VINA RESULT:    -4.022     15.378     15.967
REMARK INTER + INTRA:          -6.052
REMARK INTER:                  -5.842
REMARK INTRA:                  -0.210
REMARK UNBOUND:                -0.384
REMARK  Name = 379
REMARK  8 active torsions:
REMARK  status: ('A' for Active; 'I' for Inactive)
REMARK    1  A    between atoms: O_1  and  C_10
REMARK    2  A    between atoms: C_3  and  C_4
REMARK    3  A    between atoms: C_3  and  C_5
REMARK    4  A    between atoms: C_4  and  C_6
REMARK    5  A    between atoms: C_5  and  C_7
REMARK    6  A    between atoms: C_6  and  C_8
REMARK    7  A    between atoms: C_7  and  C_9
REMARK    8  A    between atoms: C_8  and  C_10
REMARK                            x       y       z     vdW  Elec       q    Type
REMARK                         _______ _______ _______ _____ _____    ______ ____
ROOT
ATOM      1  C   UNL     1       7.789  13.316  -1.226  0.00  0.00    +0.000 C 
ATOM      2  H   UNL     1       8.647  13.993  -1.121  0.00  0.00    +0.000 HD
ATOM      3  H   UNL     1       7.140  13.746  -1.999  0.00  0.00    +0.000 HD
ENDROOT
BRANCH   1   4
ATOM      4  C   UNL     1       8.292  11.951  -1.705  0.00  0.00    +0.000 C 
ATOM      5  H   UNL     1       8.885  11.493  -0.902  0.00  0.00    +0.000 HD
ATOM      6  H   UNL     1       7.425  11.296  -1.860  0.00  0.00    +0.000 HD
BRANCH   4   7
ATOM      7  C   UNL     1       9.130  11.961  -2.987  0.00  0.00    +0.000 C 
ATOM      8  H   UNL     1      10.105  12.417  -2.772  0.00  0.00    +0.000 HD
ATOM      9  H   UNL     1       9.335  10.927  -3.287  0.00  0.00    +0.000 HD
BRANCH   7  10
ATOM     10  C   UNL     1       8.466  12.709  -4.142  0.00  0.00    +0.000 C 
ATOM     11  H   UNL     1       8.541  13.790  -3.976  0.00  0.00    +0.000 HD
ATOM     12  H   UNL     1       7.409  12.429  -4.203  0.00  0.00    +0.000 HD
BRANCH  10  14
ATOM     13  O   UNL     1      10.308  12.513  -5.723  0.00  0.00    +0.000 OA
ATOM     14  C   UNL     1       9.118  12.389  -5.468  0.00  0.00    +0.000 C 
BRANCH  14  15
ATOM     15  O   UNL     1       8.210  11.931  -6.369  0.00  0.00    +0.000 OA
ATOM     16  H   UNL     1       7.621  11.250  -5.980  0.00  0.00    +0.000 HD
ENDBRANCH  14  15
ENDBRANCH  10  14
ENDBRANCH   7  10
ENDBRANCH   4   7
ENDBRANCH   1   4
BRANCH   1  17
ATOM     17  C   UNL     1       7.025  13.254   0.098  0.00  0.00    +0.000 C 
ATOM     18  H   UNL     1       7.734  13.315   0.934  0.00  0.00    +0.000 HD
ATOM     19  H   UNL     1       6.358  14.120   0.175  0.00  0.00    +0.000 HD
BRANCH  17  20
ATOM     20  C   UNL     1       6.211  11.963   0.206  0.00  0.00    +0.000 C 
ATOM     21  H   UNL     1       5.327  12.025  -0.438  0.00  0.00    +0.000 HD
ATOM     22  H   UNL     1       6.810  11.115  -0.144  0.00  0.00    +0.000 HD
BRANCH  20  23
ATOM     23  C   UNL     1       5.766  11.705   1.637  0.00  0.00    +0.000 C 
ATOM     24  H   UNL     1       6.382  10.931   2.107  0.00  0.00    +0.000 HD
ATOM     25  H   UNL     1       4.725  11.367   1.655  0.00  0.00    +0.000 HD
ATOM     26  H   UNL     1       5.838  12.616   2.241  0.00  0.00    +0.000 HD
ENDBRANCH  20  23
ENDBRANCH  17  20
ENDBRANCH   1  17
TORSDOF 8
ENDMDL
MODEL 6
REMARK VINA RESULT:    -3.985     16.793     18.521
REMARK INTER + INTRA:          -6.001
REMARK INTER:                  -5.614
REMARK INTRA:                  -0.387
REMARK UNBOUND:                -0.384
REMARK  Name = 379
REMARK  8 active torsions:
REMARK  status: ('A' for Active; 'I' for Inactive)
REMARK    1  A    between atoms: O_1  and  C_10
REMARK    2  A    between atoms: C_3  and  C_4
REMARK    3  A    between atoms: C_3  and  C_5
REMARK    4  A    between atoms: C_4  and  C_6
REMARK    5  A    between atoms: C_5  and  C_7
REMARK    6  A    between atoms: C_6  and  C_8
REMARK    7  A    between atoms: C_7  and  C_9
REMARK    8  A    between atoms: C_8  and  C_10
REMARK                            x       y       z     vdW  Elec       q    Type
REMARK                         _______ _______ _______ _____ _____    ______ ____
ROOT
ATOM      1  C   UNL     1      -0.002  -5.203  16.296  0.00  0.00    +0.000 C 
ATOM      2  H   UNL     1      -0.831  -4.485  16.336  0.00  0.00    +0.000 HD
ATOM      3  H   UNL     1       0.532  -5.123  17.251  0.00  0.00    +0.000 HD
ENDROOT
BRANCH   1   4
ATOM      4  C   UNL     1      -0.577  -6.617  16.167  0.00  0.00    +0.000 C 
ATOM      5  H   UNL     1      -1.668  -6.544  16.064  0.00  0.00    +0.000 HD
ATOM      6  H   UNL     1      -0.208  -7.059  15.232  0.00  0.00    +0.000 HD
BRANCH   4   7
ATOM      7  C   UNL     1      -0.257  -7.575  17.319  0.00  0.00    +0.000 C 
ATOM      8  H   UNL     1       0.151  -6.998  18.159  0.00  0.00    +0.000 HD
ATOM      9  H   UNL     1      -1.190  -8.024  17.679  0.00  0.00    +0.000 HD
BRANCH   7  10
ATOM     10  C   UNL     1       0.729  -8.678  16.936  0.00  0.00    +0.000 C 
ATOM     11  H   UNL     1       0.333  -9.252  16.090  0.00  0.00    +0.000 HD
ATOM     12  H   UNL     1       0.878  -9.351  17.786  0.00  0.00    +0.000 HD
BRANCH  10  14
ATOM     13  O   UNL     1       2.619  -8.280  15.453  0.00  0.00    +0.000 OA
ATOM     14  C   UNL     1       2.074  -8.116  16.536  0.00  0.00    +0.000 C 
BRANCH  14  15
ATOM     15  O   UNL     1       2.624  -7.384  17.540  0.00  0.00    +0.000 OA
ATOM     16  H   UNL     1       3.098  -7.949  18.186  0.00  0.00    +0.000 HD
ENDBRANCH  14  15
ENDBRANCH  10  14
ENDBRANCH   7  10
ENDBRANCH   4   7
ENDBRANCH   1   4
BRANCH   1  17
ATOM     17  C   UNL     1       0.943  -4.824  15.155  0.00  0.00    +0.000 C 
ATOM     18  H   UNL     1       1.271  -5.731  14.632  0.00  0.00    +0.000 HD
ATOM     19  H   UNL     1       0.406  -4.206  14.426  0.00  0.00    +0.000 HD
BRANCH  17  20
ATOM     20  C   UNL     1       2.163  -4.062  15.677  0.00  0.00    +0.000 C 
ATOM     21  H   UNL     1       2.018  -3.807  16.733  0.00  0.00    +0.000 HD
ATOM     22  H   UNL     1       3.053  -4.698  15.616  0.00  0.00    +0.000 HD
BRANCH  20  23
ATOM     23  C   UNL     1       2.403  -2.786  14.886  0.00  0.00    +0.000 C 
ATOM     24  H   UNL     1       1.987  -1.917  15.406  0.00  0.00    +0.000 HD
ATOM     25  H   UNL     1       1.926  -2.854  13.903  0.00  0.00    +0.000 HD
ATOM     26  H   UNL     1       3.474  -2.615  14.733  0.00  0.00    +0.000 HD
ENDBRANCH  20  23
ENDBRANCH  17  20
ENDBRANCH   1  17
TORSDOF 8
ENDMDL
MODEL 7
REMARK VINA RESULT:    -3.891     15.351     16.905
REMARK INTER + INTRA:          -5.868
REMARK INTER:                  -5.590
REMARK INTRA:                  -0.278
REMARK UNBOUND:                -0.384
REMARK  Name = 379
REMARK  8 active torsions:
REMARK  status: ('A' for Active; 'I' for Inactive)
REMARK    1  A    between atoms: O_1  and  C_10
REMARK    2  A    between atoms: C_3  and  C_4
REMARK    3  A    between atoms: C_3  and  C_5
REMARK    4  A    between atoms: C_4  and  C_6
REMARK    5  A    between atoms: C_5  and  C_7
REMARK    6  A    between atoms: C_6  and  C_8
REMARK    7  A    between atoms: C_7  and  C_9
REMARK    8  A    between atoms: C_8  and  C_10
REMARK                            x       y       z     vdW  Elec       q    Type
REMARK                         _______ _______ _______ _____ _____    ______ ____
ROOT
ATOM      1  C   UNL     1       1.706  -5.370  16.222  0.00  0.00    +0.000 C 
ATOM      2  H   UNL     1       1.876  -6.335  16.716  0.00  0.00    +0.000 HD
ATOM      3  H   UNL     1       2.144  -4.601  16.871  0.00  0.00    +0.000 HD
ENDROOT
BRANCH   1   4
ATOM      4  C   UNL     1       2.445  -5.364  14.880  0.00  0.00    +0.000 C 
ATOM      5  H   UNL     1       1.751  -5.695  14.096  0.00  0.00    +0.000 HD
ATOM      6  H   UNL     1       2.715  -4.329  14.636  0.00  0.00    +0.000 HD
BRANCH   4   7
ATOM      7  C   UNL     1       3.709  -6.227  14.810  0.00  0.00    +0.000 C 
ATOM      8  H   UNL     1       4.377  -5.819  14.041  0.00  0.00    +0.000 HD
ATOM      9  H   UNL     1       4.249  -6.145  15.761  0.00  0.00    +0.000 HD
BRANCH   7  10
ATOM     10  C   UNL     1       3.426  -7.697  14.506  0.00  0.00    +0.000 C 
ATOM     11  H   UNL     1       2.361  -7.832  14.283  0.00  0.00    +0.000 HD
ATOM     12  H   UNL     1       3.690  -8.311  15.374  0.00  0.00    +0.000 HD
BRANCH  10  14
ATOM     13  O   UNL     1       5.345  -7.815  13.012  0.00  0.00    +0.000 OA
ATOM     14  C   UNL     1       4.222  -8.189  13.319  0.00  0.00    +0.000 C 
BRANCH  14  15
ATOM     15  O   UNL     1       3.535  -9.125  12.614  0.00  0.00    +0.000 OA
ATOM     16  H   UNL     1       3.856  -9.195  11.689  0.00  0.00    +0.000 HD
ENDBRANCH  14  15
ENDBRANCH  10  14
ENDBRANCH   7  10
ENDBRANCH   4   7
ENDBRANCH   1   4
BRANCH   1  17
ATOM     17  C   UNL     1       0.202  -5.124  16.091  0.00  0.00    +0.000 C 
ATOM     18  H   UNL     1      -0.112  -4.372  16.826  0.00  0.00    +0.000 HD
ATOM     19  H   UNL     1      -0.015  -4.716  15.097  0.00  0.00    +0.000 HD
BRANCH  17  20
ATOM     20  C   UNL     1      -0.590  -6.415  16.303  0.00  0.00    +0.000 C 
ATOM     21  H   UNL     1      -1.649  -6.181  16.462  0.00  0.00    +0.000 HD
ATOM     22  H   UNL     1      -0.528  -7.042  15.406  0.00  0.00    +0.000 HD
BRANCH  20  23
ATOM     23  C   UNL     1      -0.069  -7.197  17.498  0.00  0.00    +0.000 C 
ATOM     24  H   UNL     1       0.820  -7.777  17.230  0.00  0.00    +0.000 HD
ATOM     25  H   UNL     1      -0.833  -7.893  17.858  0.00  0.00    +0.000 HD
ATOM     26  H   UNL     1       0.194  -6.526  18.322  0.00  0.00    +0.000 HD
ENDBRANCH  20  23
ENDBRANCH  17  20
ENDBRANCH   1  17
TORSDOF 8
ENDMDL
MODEL 8
REMARK VINA RESULT:    -3.818     13.915     14.948
REMARK INTER + INTRA:          -5.765
REMARK INTER:                  -5.432
REMARK INTRA:                  -0.333
REMARK UNBOUND:                -0.384
REMARK  Name = 379
REMARK  8 active torsions:
REMARK  status: ('A' for Active; 'I' for Inactive)
REMARK    1  A    between atoms: O_1  and  C_10
REMARK    2  A    between atoms: C_3  and  C_4
REMARK    3  A    between atoms: C_3  and  C_5
REMARK    4  A    between atoms: C_4  and  C_6
REMARK    5  A    between atoms: C_5  and  C_7
REMARK    6  A    between atoms: C_6  and  C_8
REMARK    7  A    between atoms: C_7  and  C_9
REMARK    8  A    between atoms: C_8  and  C_10
REMARK                            x       y       z     vdW  Elec       q    Type
REMARK                         _______ _______ _______ _____ _____    ______ ____
ROOT
ATOM      1  C   UNL     1      -5.827  -6.342  -9.417  0.00  0.00    +0.000 C 
ATOM      2  H   UNL     1      -6.318  -7.190  -9.911  0.00  0.00    +0.000 HD
ATOM      3  H   UNL     1      -6.066  -5.450 -10.010  0.00  0.00    +0.000 HD
ENDROOT
BRANCH   1   4
ATOM      4  C   UNL     1      -6.419  -6.176  -8.014  0.00  0.00    +0.000 C 
ATOM      5  H   UNL     1      -5.660  -5.719  -7.365  0.00  0.00    +0.000 HD
ATOM      6  H   UNL     1      -7.249  -5.460  -8.069  0.00  0.00    +0.000 HD
BRANCH   4   7
ATOM      7  C   UNL     1      -6.925  -7.459  -7.348  0.00  0.00    +0.000 C 
ATOM      8  H   UNL     1      -8.008  -7.537  -7.502  0.00  0.00    +0.000 HD
ATOM      9  H   UNL     1      -6.479  -8.323  -7.853  0.00  0.00    +0.000 HD
BRANCH   7  10
ATOM     10  C   UNL     1      -6.620  -7.527  -5.852  0.00  0.00    +0.000 C 
ATOM     11  H   UNL     1      -7.549  -7.424  -5.279  0.00  0.00    +0.000 HD
ATOM     12  H   UNL     1      -5.938  -6.716  -5.577  0.00  0.00    +0.000 HD
BRANCH  10  14
ATOM     13  O   UNL     1      -5.050  -9.376  -6.064  0.00  0.00    +0.000 OA
ATOM     14  C   UNL     1      -5.973  -8.839  -5.469  0.00  0.00    +0.000 C 
BRANCH  14  15
ATOM     15  O   UNL     1      -6.544  -9.367  -4.355  0.00  0.00    +0.000 OA
ATOM     16  H   UNL     1      -7.075  -8.702  -3.866  0.00  0.00    +0.000 HD
ENDBRANCH  14  15
ENDBRANCH  10  14
ENDBRANCH   7  10
ENDBRANCH   4   7
ENDBRANCH   1   4
BRANCH   1  17
ATOM     17  C   UNL     1      -4.313  -6.559  -9.419  0.00  0.00    +0.000 C 
ATOM     18  H   UNL     1      -3.840  -5.846 -10.107  0.00  0.00    +0.000 HD
ATOM     19  H   UNL     1      -3.914  -6.356  -8.418  0.00  0.00    +0.000 HD
BRANCH  17  20
ATOM     20  C   UNL     1      -3.960  -7.988  -9.835  0.00  0.00    +0.000 C 
ATOM     21  H   UNL     1      -4.853  -8.621  -9.789  0.00  0.00    +0.000 HD
ATOM     22  H   UNL     1      -3.608  -7.997 -10.873  0.00  0.00    +0.000 HD
BRANCH  20  23
ATOM     23  C   UNL     1      -2.885  -8.580  -8.937  0.00  0.00    +0.000 C 
ATOM     24  H   UNL     1      -3.329  -9.159  -8.121  0.00  0.00    +0.000 HD
ATOM     25  H   UNL     1      -2.278  -7.783  -8.496  0.00  0.00    +0.000 HD
ATOM     26  H   UNL     1      -2.219  -9.239  -9.504  0.00  0.00    +0.000 HD
ENDBRANCH  20  23
ENDBRANCH  17  20
ENDBRANCH   1  17
TORSDOF 8
ENDMDL
MODEL 9
REMARK VINA RESULT:    -3.811     13.779     14.872
REMARK INTER + INTRA:          -5.755
REMARK INTER:                  -5.469
REMARK INTRA:                  -0.286
REMARK UNBOUND:                -0.384
REMARK  Name = 379
REMARK  8 active torsions:
REMARK  status: ('A' for Active; 'I' for Inactive)
REMARK    1  A    between atoms: O_1  and  C_10
REMARK    2  A    between atoms: C_3  and  C_4
REMARK    3  A    between atoms: C_3  and  C_5
REMARK    4  A    between atoms: C_4  and  C_6
REMARK    5  A    between atoms: C_5  and  C_7
REMARK    6  A    between atoms: C_6  and  C_8
REMARK    7  A    between atoms: C_7  and  C_9
REMARK    8  A    between atoms: C_8  and  C_10
REMARK                            x       y       z     vdW  Elec       q    Type
REMARK                         _______ _______ _______ _____ _____    ______ ____
ROOT
ATOM      1  C   UNL     1      -4.905  -6.708  -9.886  0.00  0.00    +0.000 C 
ATOM      2  H   UNL     1      -5.144  -6.096 -10.765  0.00  0.00    +0.000 HD
ATOM      3  H   UNL     1      -5.253  -7.726 -10.105  0.00  0.00    +0.000 HD
ENDROOT
BRANCH   1   4
ATOM      4  C   UNL     1      -3.385  -6.735  -9.699  0.00  0.00    +0.000 C 
ATOM      5  H   UNL     1      -2.910  -6.426 -10.640  0.00  0.00    +0.000 HD
ATOM      6  H   UNL     1      -3.112  -5.976  -8.953  0.00  0.00    +0.000 HD
BRANCH   4   7
ATOM      7  C   UNL     1      -2.789  -8.078  -9.267  0.00  0.00    +0.000 C 
ATOM      8  H   UNL     1      -1.752  -8.138  -9.623  0.00  0.00    +0.000 HD
ATOM      9  H   UNL     1      -2.740  -8.111  -8.172  0.00  0.00    +0.000 HD
BRANCH   7  10
ATOM     10  C   UNL     1      -3.572  -9.284  -9.782  0.00  0.00    +0.000 C 
ATOM     11  H   UNL     1      -2.957  -9.851 -10.491  0.00  0.00    +0.000 HD
ATOM     12  H   UNL     1      -4.481  -8.945 -10.289  0.00  0.00    +0.000 HD
BRANCH  10  14
ATOM     13  O   UNL     1      -4.265 -11.395  -8.786  0.00  0.00    +0.000 OA
ATOM     14  C   UNL     1      -3.975 -10.214  -8.660  0.00  0.00    +0.000 C 
BRANCH  14  15
ATOM     15  O   UNL     1      -3.976  -9.574  -7.462  0.00  0.00    +0.000 OA
ATOM     16  H   UNL     1      -3.121  -9.125  -7.287  0.00  0.00    +0.000 HD
ENDBRANCH  14  15
ENDBRANCH  10  14
ENDBRANCH   7  10
ENDBRANCH   4   7
ENDBRANCH   1   4
BRANCH   1  17
ATOM     17  C   UNL     1      -5.659  -6.167  -8.669  0.00  0.00    +0.000 C 
ATOM     18  H   UNL     1      -5.521  -6.847  -7.819  0.00  0.00    +0.000 HD
ATOM     19  H   UNL     1      -5.237  -5.198  -8.380  0.00  0.00    +0.000 HD
BRANCH  17  20
ATOM     20  C   UNL     1      -7.151  -6.013  -8.968  0.00  0.00    +0.000 C 
ATOM     21  H   UNL     1      -7.292  -5.358  -9.835  0.00  0.00    +0.000 HD
ATOM     22  H   UNL     1      -7.583  -6.987  -9.223  0.00  0.00    +0.000 HD
BRANCH  20  23
ATOM     23  C   UNL     1      -7.899  -5.429  -7.779  0.00  0.00    +0.000 C 
ATOM     24  H   UNL     1      -8.677  -6.116  -7.429  0.00  0.00    +0.000 HD
ATOM     25  H   UNL     1      -8.378  -4.487  -8.059  0.00  0.00    +0.000 HD
ATOM     26  H   UNL     1      -7.217  -5.230  -6.946  0.00  0.00    +0.000 HD
ENDBRANCH  20  23
ENDBRANCH  17  20
ENDBRANCH   1  17
TORSDOF 8
ENDMDL
MODEL 10
REMARK VINA RESULT:    -3.748      1.860      2.423
REMARK INTER + INTRA:          -5.666
REMARK INTER:                  -5.281
REMARK INTRA:                  -0.384
REMARK UNBOUND:                -0.384
REMARK  Name = 379
REMARK  8 active torsions:
REMARK  status: ('A' for Active; 'I' for Inactive)
REMARK    1  A    between atoms: O_1  and  C_10
REMARK    2  A    between atoms: C_3  and  C_4
REMARK    3  A    between atoms: C_3  and  C_5
REMARK    4  A    between atoms: C_4  and  C_6
REMARK    5  A    between atoms: C_5  and  C_7
REMARK    6  A    between atoms: C_6  and  C_8
REMARK    7  A    between atoms: C_7  and  C_9
REMARK    8  A    between atoms: C_8  and  C_10
REMARK                            x       y       z     vdW  Elec       q    Type
REMARK                         _______ _______ _______ _____ _____    ______ ____
ROOT
ATOM      1  C   UNL     1       5.695  -4.072  -1.276  0.00  0.00    +0.000 C 
ATOM      2  H   UNL     1       5.227  -4.955  -1.731  0.00  0.00    +0.000 HD
ATOM      3  H   UNL     1       5.583  -4.181  -0.190  0.00  0.00    +0.000 HD
ENDROOT
BRANCH   1   4
ATOM      4  C   UNL     1       7.186  -4.067  -1.623  0.00  0.00    +0.000 C 
ATOM      5  H   UNL     1       7.743  -4.516  -0.789  0.00  0.00    +0.000 HD
ATOM      6  H   UNL     1       7.345  -4.725  -2.488  0.00  0.00    +0.000 HD
BRANCH   4   7
ATOM      7  C   UNL     1       7.794  -2.697  -1.936  0.00  0.00    +0.000 C 
ATOM      8  H   UNL     1       8.070  -2.663  -2.998  0.00  0.00    +0.000 HD
ATOM      9  H   UNL     1       7.027  -1.926  -1.794  0.00  0.00    +0.000 HD
BRANCH   7  10
ATOM     10  C   UNL     1       9.018  -2.365  -1.084  0.00  0.00    +0.000 C 
ATOM     11  H   UNL     1       9.673  -1.675  -1.628  0.00  0.00    +0.000 HD
ATOM     12  H   UNL     1       9.572  -3.283  -0.861  0.00  0.00    +0.000 HD
BRANCH  10  14
ATOM     13  O   UNL     1       9.277  -1.775   1.264  0.00  0.00    +0.000 OA
ATOM     14  C   UNL     1       8.633  -1.716   0.226  0.00  0.00    +0.000 C 
BRANCH  14  15
ATOM     15  O   UNL     1       7.461  -1.037   0.118  0.00  0.00    +0.000 OA
ATOM     16  H   UNL     1       7.564  -0.091   0.356  0.00  0.00    +0.000 HD
ENDBRANCH  14  15
ENDBRANCH  10  14
ENDBRANCH   7  10
ENDBRANCH   4   7
ENDBRANCH   1   4
BRANCH   1  17
ATOM     17  C   UNL     1       4.958  -2.813  -1.736  0.00  0.00    +0.000 C 
ATOM     18  H   UNL     1       5.616  -1.942  -1.628  0.00  0.00    +0.000 HD
ATOM     19  H   UNL     1       4.711  -2.902  -2.800  0.00  0.00    +0.000 HD
BRANCH  17  20
ATOM     20  C   UNL     1       3.678  -2.595  -0.927  0.00  0.00    +0.000 C 
ATOM     21  H   UNL     1       3.493  -1.522  -0.804  0.00  0.00    +0.000 HD
ATOM     22  H   UNL     1       2.820  -3.013  -1.466  0.00  0.00    +0.000 HD
BRANCH  20  23
ATOM     23  C   UNL     1       3.771  -3.243   0.446  0.00  0.00    +0.000 C 
ATOM     24  H   UNL     1       3.560  -4.316   0.389  0.00  0.00    +0.000 HD
ATOM     25  H   UNL     1       3.046  -2.789   1.129  0.00  0.00    +0.000 HD
ATOM     26  H   UNL     1       4.770  -3.111   0.875  0.00  0.00    +0.000 HD
ENDBRANCH  20  23
ENDBRANCH  17  20
ENDBRANCH   1  17
TORSDOF 8
ENDMDL
