MODEL 1
REMARK VINA RESULT:    -5.477      0.000      0.000
REMARK INTER + INTRA:          -6.792
REMARK INTER:                  -6.564
REMARK INTRA:                  -0.228
REMARK UNBOUND:                -0.194
REMARK  Name = 62098
REMARK  4 active torsions:
REMARK  status: ('A' for Active; 'I' for Inactive)
REMARK    1  A    between atoms: C_4  and  C_5
REMARK    2  A    between atoms: C_4  and  C_6
REMARK    3  A    between atoms: C_6  and  C_13
REMARK    4  A    between atoms: C_13  and  C_14
REMARK                            x       y       z     vdW  Elec       q    Type
REMARK                         _______ _______ _______ _____ _____    ______ ____
ROOT
ATOM      1  O   UNL     1       7.477  13.750  -5.390  0.00  0.00    +0.000 OA
ATOM      2  O   UNL     1       9.377  12.273  -5.268  0.00  0.00    +0.000 OA
ATOM      3  C   UNL     1       7.227  12.903  -1.829  0.00  0.00    +0.000 A 
ATOM      4  C   UNL     1       7.662  13.247  -4.139  0.00  0.00    +0.000 A 
ATOM      5  C   UNL     1       6.880  13.517  -3.035  0.00  0.00    +0.000 A 
ATOM      6  C   UNL     1       8.747  12.403  -4.070  0.00  0.00    +0.000 A 
ATOM      7  C   UNL     1       8.336  12.041  -1.758  0.00  0.00    +0.000 A 
ATOM      8  C   UNL     1       9.110  11.784  -2.892  0.00  0.00    +0.000 A 
ATOM      9  C   UNL     1       8.569  13.128  -6.101  0.00  0.00    +0.000 C 
ATOM     10  H   UNL     1       6.029  14.186  -3.106  0.00  0.00    +0.000 HD
ATOM     11  H   UNL     1       8.602  11.567  -0.816  0.00  0.00    +0.000 HD
ATOM     12  H   UNL     1       9.966  11.121  -2.841  0.00  0.00    +0.000 HD
ATOM     13  H   UNL     1       9.206  13.914  -6.521  0.00  0.00    +0.000 HD
ATOM     14  H   UNL     1       8.157  12.532  -6.923  0.00  0.00    +0.000 HD
ENDROOT
BRANCH   3  15
ATOM     15  C   UNL     1       6.415  13.163  -0.605  0.00  0.00    +0.000 C 
ATOM     16  H   UNL     1       6.921  13.905   0.026  0.00  0.00    +0.000 HD
ATOM     17  H   UNL     1       5.461  13.629  -0.885  0.00  0.00    +0.000 HD
BRANCH  15  18
ATOM     18  C   UNL     1       6.154  11.886   0.202  0.00  0.00    +0.000 C 
ATOM     19  H   UNL     1       7.071  11.288   0.267  0.00  0.00    +0.000 HD
ATOM     20  H   UNL     1       5.388  11.279  -0.296  0.00  0.00    +0.000 HD
BRANCH  18  22
ATOM     21  O   UNL     1       4.691  11.617   2.107  0.00  0.00    +0.000 OA
ATOM     22  C   UNL     1       5.678  12.163   1.616  0.00  0.00    +0.000 C 
BRANCH  22  23
ATOM     23  C   UNL     1       6.486  13.161   2.405  0.00  0.00    +0.000 C 
ATOM     24  H   UNL     1       6.979  13.859   1.722  0.00  0.00    +0.000 HD
ATOM     25  H   UNL     1       5.827  13.723   3.069  0.00  0.00    +0.000 HD
ATOM     26  H   UNL     1       7.250  12.637   2.985  0.00  0.00    +0.000 HD
ENDBRANCH  22  23
ENDBRANCH  18  22
ENDBRANCH  15  18
ENDBRANCH   3  15
TORSDOF 4
ENDMDL
MODEL 2
REMARK VINA RESULT:    -5.268     23.199     24.077
REMARK INTER + INTRA:          -6.540
REMARK INTER:                  -6.340
REMARK INTRA:                  -0.201
REMARK UNBOUND:                -0.194
REMARK  Name = 62098
REMARK  4 active torsions:
REMARK  status: ('A' for Active; 'I' for Inactive)
REMARK    1  A    between atoms: C_4  and  C_5
REMARK    2  A    between atoms: C_4  and  C_6
REMARK    3  A    between atoms: C_6  and  C_13
REMARK    4  A    between atoms: C_13  and  C_14
REMARK                            x       y       z     vdW  Elec       q    Type
REMARK                         _______ _______ _______ _____ _____    ______ ____
ROOT
ATOM      1  O   UNL     1      11.818 -11.313  -3.839  0.00  0.00    +0.000 OA
ATOM      2  O   UNL     1      12.410  -9.372  -2.539  0.00  0.00    +0.000 OA
ATOM      3  C   UNL     1       9.129 -11.534  -1.353  0.00  0.00    +0.000 A 
ATOM      4  C   UNL     1      10.970 -11.112  -2.793  0.00  0.00    +0.000 A 
ATOM      5  C   UNL     1       9.884 -11.899  -2.469  0.00  0.00    +0.000 A 
ATOM      6  C   UNL     1      11.309 -10.004  -2.051  0.00  0.00    +0.000 A 
ATOM      7  C   UNL     1       9.474 -10.402  -0.594  0.00  0.00    +0.000 A 
ATOM      8  C   UNL     1      10.579  -9.622  -0.944  0.00  0.00    +0.000 A 
ATOM      9  C   UNL     1      12.728 -10.206  -3.671  0.00  0.00    +0.000 C 
ATOM     10  H   UNL     1       9.629 -12.769  -3.066  0.00  0.00    +0.000 HD
ATOM     11  H   UNL     1       8.881 -10.120   0.273  0.00  0.00    +0.000 HD
ATOM     12  H   UNL     1      10.849  -8.748  -0.363  0.00  0.00    +0.000 HD
ATOM     13  H   UNL     1      12.703  -9.591  -4.579  0.00  0.00    +0.000 HD
ATOM     14  H   UNL     1      13.742 -10.602  -3.543  0.00  0.00    +0.000 HD
ENDROOT
BRANCH   3  15
ATOM     15  C   UNL     1       7.943 -12.351  -0.961  0.00  0.00    +0.000 C 
ATOM     16  H   UNL     1       7.607 -12.952  -1.816  0.00  0.00    +0.000 HD
ATOM     17  H   UNL     1       8.233 -13.082  -0.194  0.00  0.00    +0.000 HD
BRANCH  15  18
ATOM     18  C   UNL     1       6.787 -11.487  -0.445  0.00  0.00    +0.000 C 
ATOM     19  H   UNL     1       6.764 -10.529  -0.979  0.00  0.00    +0.000 HD
ATOM     20  H   UNL     1       6.924 -11.277   0.623  0.00  0.00    +0.000 HD
BRANCH  18  22
ATOM     21  O   UNL     1       4.425 -11.525  -0.961  0.00  0.00    +0.000 OA
ATOM     22  C   UNL     1       5.430 -12.146  -0.617  0.00  0.00    +0.000 C 
BRANCH  22  23
ATOM     23  C   UNL     1       5.371 -13.626  -0.338  0.00  0.00    +0.000 C 
ATOM     24  H   UNL     1       4.328 -13.950  -0.286  0.00  0.00    +0.000 HD
ATOM     25  H   UNL     1       5.871 -14.170  -1.142  0.00  0.00    +0.000 HD
ATOM     26  H   UNL     1       5.855 -13.837   0.620  0.00  0.00    +0.000 HD
ENDBRANCH  22  23
ENDBRANCH  18  22
ENDBRANCH  15  18
ENDBRANCH   3  15
TORSDOF 4
ENDMDL
MODEL 3
REMARK VINA RESULT:    -5.065     28.611     30.959
REMARK INTER + INTRA:          -6.296
REMARK INTER:                  -5.980
REMARK INTRA:                  -0.316
REMARK UNBOUND:                -0.194
REMARK  Name = 62098
REMARK  4 active torsions:
REMARK  status: ('A' for Active; 'I' for Inactive)
REMARK    1  A    between atoms: C_4  and  C_5
REMARK    2  A    between atoms: C_4  and  C_6
REMARK    3  A    between atoms: C_6  and  C_13
REMARK    4  A    between atoms: C_13  and  C_14
REMARK                            x       y       z     vdW  Elec       q    Type
REMARK                         _______ _______ _______ _____ _____    ______ ____
ROOT
ATOM      1  O   UNL     1      -9.364 -14.895   5.932  0.00  0.00    +0.000 OA
ATOM      2  O   UNL     1      -7.652 -14.823   7.628  0.00  0.00    +0.000 OA
ATOM      3  C   UNL     1      -6.929 -12.851   4.101  0.00  0.00    +0.000 A 
ATOM      4  C   UNL     1      -8.276 -14.178   5.539  0.00  0.00    +0.000 A 
ATOM      5  C   UNL     1      -8.121 -13.544   4.324  0.00  0.00    +0.000 A 
ATOM      6  C   UNL     1      -7.299 -14.136   6.508  0.00  0.00    +0.000 A 
ATOM      7  C   UNL     1      -5.930 -12.809   5.091  0.00  0.00    +0.000 A 
ATOM      8  C   UNL     1      -6.113 -13.459   6.313  0.00  0.00    +0.000 A 
ATOM      9  C   UNL     1      -8.961 -15.301   7.257  0.00  0.00    +0.000 C 
ATOM     10  H   UNL     1      -8.900 -13.588   3.570  0.00  0.00    +0.000 HD
ATOM     11  H   UNL     1      -5.003 -12.269   4.911  0.00  0.00    +0.000 HD
ATOM     12  H   UNL     1      -5.346 -13.429   7.078  0.00  0.00    +0.000 HD
ATOM     13  H   UNL     1      -8.961 -16.397   7.303  0.00  0.00    +0.000 HD
ATOM     14  H   UNL     1      -9.693 -14.919   7.979  0.00  0.00    +0.000 HD
ENDROOT
BRANCH   3  15
ATOM     15  C   UNL     1      -6.711 -12.150   2.803  0.00  0.00    +0.000 C 
ATOM     16  H   UNL     1      -7.261 -12.666   2.005  0.00  0.00    +0.000 HD
ATOM     17  H   UNL     1      -7.149 -11.143   2.846  0.00  0.00    +0.000 HD
BRANCH  15  18
ATOM     18  C   UNL     1      -5.226 -12.056   2.435  0.00  0.00    +0.000 C 
ATOM     19  H   UNL     1      -4.614 -12.534   3.210  0.00  0.00    +0.000 HD
ATOM     20  H   UNL     1      -4.923 -11.004   2.364  0.00  0.00    +0.000 HD
BRANCH  18  22
ATOM     21  O   UNL     1      -4.820 -12.099   0.052  0.00  0.00    +0.000 OA
ATOM     22  C   UNL     1      -4.899 -12.722   1.110  0.00  0.00    +0.000 C 
BRANCH  22  23
ATOM     23  C   UNL     1      -4.674 -14.211   1.153  0.00  0.00    +0.000 C 
ATOM     24  H   UNL     1      -4.233 -14.490   2.115  0.00  0.00    +0.000 HD
ATOM     25  H   UNL     1      -5.628 -14.729   1.039  0.00  0.00    +0.000 HD
ATOM     26  H   UNL     1      -3.988 -14.502   0.353  0.00  0.00    +0.000 HD
ENDBRANCH  22  23
ENDBRANCH  18  22
ENDBRANCH  15  18
ENDBRANCH   3  15
TORSDOF 4
ENDMDL
MODEL 4
REMARK VINA RESULT:    -5.017     30.096     32.575
REMARK INTER + INTRA:          -6.238
REMARK INTER:                  -5.965
REMARK INTRA:                  -0.273
REMARK UNBOUND:                -0.194
REMARK  Name = 62098
REMARK  4 active torsions:
REMARK  status: ('A' for Active; 'I' for Inactive)
REMARK    1  A    between atoms: C_4  and  C_5
REMARK    2  A    between atoms: C_4  and  C_6
REMARK    3  A    between atoms: C_6  and  C_13
REMARK    4  A    between atoms: C_13  and  C_14
REMARK                            x       y       z     vdW  Elec       q    Type
REMARK                         _______ _______ _______ _____ _____    ______ ____
ROOT
ATOM      1  O   UNL     1     -17.327  -2.190  10.833  0.00  0.00    +0.000 OA
ATOM      2  O   UNL     1     -16.001  -1.233   9.062  0.00  0.00    +0.000 OA
ATOM      3  C   UNL     1     -19.993  -1.852   8.335  0.00  0.00    +0.000 A 
ATOM      4  C   UNL     1     -18.061  -1.938   9.715  0.00  0.00    +0.000 A 
ATOM      5  C   UNL     1     -19.411  -2.180   9.562  0.00  0.00    +0.000 A 
ATOM      6  C   UNL     1     -17.304  -1.391   8.704  0.00  0.00    +0.000 A 
ATOM      7  C   UNL     1     -19.220  -1.294   7.303  0.00  0.00    +0.000 A 
ATOM      8  C   UNL     1     -17.855  -1.058   7.484  0.00  0.00    +0.000 A 
ATOM      9  C   UNL     1     -16.022  -1.741  10.411  0.00  0.00    +0.000 C 
ATOM     10  H   UNL     1     -19.993  -2.614  10.368  0.00  0.00    +0.000 HD
ATOM     11  H   UNL     1     -19.678  -1.042   6.349  0.00  0.00    +0.000 HD
ATOM     12  H   UNL     1     -17.255  -0.628   6.690  0.00  0.00    +0.000 HD
ATOM     13  H   UNL     1     -15.322  -2.583  10.481  0.00  0.00    +0.000 HD
ATOM     14  H   UNL     1     -15.687  -0.949  11.091  0.00  0.00    +0.000 HD
ENDROOT
BRANCH   3  15
ATOM     15  C   UNL     1     -21.449  -2.096   8.118  0.00  0.00    +0.000 C 
ATOM     16  H   UNL     1     -21.630  -2.350   7.066  0.00  0.00    +0.000 HD
ATOM     17  H   UNL     1     -21.766  -2.982   8.684  0.00  0.00    +0.000 HD
BRANCH  15  18
ATOM     18  C   UNL     1     -22.306  -0.889   8.517  0.00  0.00    +0.000 C 
ATOM     19  H   UNL     1     -23.250  -0.896   7.959  0.00  0.00    +0.000 HD
ATOM     20  H   UNL     1     -21.777   0.041   8.277  0.00  0.00    +0.000 HD
BRANCH  18  22
ATOM     21  O   UNL     1     -22.158  -0.042  10.776  0.00  0.00    +0.000 OA
ATOM     22  C   UNL     1     -22.642  -0.862   9.997  0.00  0.00    +0.000 C 
BRANCH  22  23
ATOM     23  C   UNL     1     -23.613  -1.910  10.477  0.00  0.00    +0.000 C 
ATOM     24  H   UNL     1     -23.126  -2.889  10.483  0.00  0.00    +0.000 HD
ATOM     25  H   UNL     1     -23.937  -1.672  11.492  0.00  0.00    +0.000 HD
ATOM     26  H   UNL     1     -24.473  -1.947   9.804  0.00  0.00    +0.000 HD
ENDBRANCH  22  23
ENDBRANCH  18  22
ENDBRANCH  15  18
ENDBRANCH   3  15
TORSDOF 4
ENDMDL
MODEL 5
REMARK VINA RESULT:    -4.874     28.310     29.979
REMARK INTER + INTRA:          -6.065
REMARK INTER:                  -5.735
REMARK INTRA:                  -0.330
REMARK UNBOUND:                -0.194
REMARK  Name = 62098
REMARK  4 active torsions:
REMARK  status: ('A' for Active; 'I' for Inactive)
REMARK    1  A    between atoms: C_4  and  C_5
REMARK    2  A    between atoms: C_4  and  C_6
REMARK    3  A    between atoms: C_6  and  C_13
REMARK    4  A    between atoms: C_13  and  C_14
REMARK                            x       y       z     vdW  Elec       q    Type
REMARK                         _______ _______ _______ _____ _____    ______ ____
ROOT
ATOM      1  O   UNL     1      -5.078 -14.613  -0.137  0.00  0.00    +0.000 OA
ATOM      2  O   UNL     1      -5.213 -12.208  -0.183  0.00  0.00    +0.000 OA
ATOM      3  C   UNL     1      -5.890 -14.088   3.402  0.00  0.00    +0.000 A 
ATOM      4  C   UNL     1      -5.380 -14.089   1.081  0.00  0.00    +0.000 A 
ATOM      5  C   UNL     1      -5.591 -14.806   2.241  0.00  0.00    +0.000 A 
ATOM      6  C   UNL     1      -5.456 -12.715   1.055  0.00  0.00    +0.000 A 
ATOM      7  C   UNL     1      -5.969 -12.684   3.375  0.00  0.00    +0.000 A 
ATOM      8  C   UNL     1      -5.750 -11.983   2.187  0.00  0.00    +0.000 A 
ATOM      9  C   UNL     1      -4.974 -13.415  -0.934  0.00  0.00    +0.000 C 
ATOM     10  H   UNL     1      -5.529 -15.889   2.245  0.00  0.00    +0.000 HD
ATOM     11  H   UNL     1      -6.204 -12.131   4.281  0.00  0.00    +0.000 HD
ATOM     12  H   UNL     1      -5.810 -10.901   2.162  0.00  0.00    +0.000 HD
ATOM     13  H   UNL     1      -5.705 -13.472  -1.750  0.00  0.00    +0.000 HD
ATOM     14  H   UNL     1      -3.968 -13.367  -1.367  0.00  0.00    +0.000 HD
ENDROOT
BRANCH   3  15
ATOM     15  C   UNL     1      -6.129 -14.816   4.682  0.00  0.00    +0.000 C 
ATOM     16  H   UNL     1      -7.135 -15.256   4.677  0.00  0.00    +0.000 HD
ATOM     17  H   UNL     1      -5.444 -15.671   4.756  0.00  0.00    +0.000 HD
BRANCH  15  18
ATOM     18  C   UNL     1      -5.963 -13.908   5.906  0.00  0.00    +0.000 C 
ATOM     19  H   UNL     1      -5.663 -12.901   5.591  0.00  0.00    +0.000 HD
ATOM     20  H   UNL     1      -5.180 -14.306   6.563  0.00  0.00    +0.000 HD
BRANCH  18  22
ATOM     21  O   UNL     1      -7.287 -13.148   7.781  0.00  0.00    +0.000 OA
ATOM     22  C   UNL     1      -7.235 -13.779   6.726  0.00  0.00    +0.000 C 
BRANCH  22  23
ATOM     23  C   UNL     1      -8.452 -14.477   6.178  0.00  0.00    +0.000 C 
ATOM     24  H   UNL     1      -9.087 -13.757   5.656  0.00  0.00    +0.000 HD
ATOM     25  H   UNL     1      -8.143 -15.252   5.473  0.00  0.00    +0.000 HD
ATOM     26  H   UNL     1      -9.022 -14.920   6.999  0.00  0.00    +0.000 HD
ENDBRANCH  22  23
ENDBRANCH  18  22
ENDBRANCH  15  18
ENDBRANCH   3  15
TORSDOF 4
ENDMDL
MODEL 6
REMARK VINA RESULT:    -4.853     21.684     22.825
REMARK INTER + INTRA:          -6.040
REMARK INTER:                  -5.804
REMARK INTRA:                  -0.237
REMARK UNBOUND:                -0.194
REMARK  Name = 62098
REMARK  4 active torsions:
REMARK  status: ('A' for Active; 'I' for Inactive)
REMARK    1  A    between atoms: C_4  and  C_5
REMARK    2  A    between atoms: C_4  and  C_6
REMARK    3  A    between atoms: C_6  and  C_13
REMARK    4  A    between atoms: C_13  and  C_14
REMARK                            x       y       z     vdW  Elec       q    Type
REMARK                         _______ _______ _______ _____ _____    ______ ____
ROOT
ATOM      1  O   UNL     1       9.618  -7.089  -8.075  0.00  0.00    +0.000 OA
ATOM      2  O   UNL     1       8.189  -8.828  -8.938  0.00  0.00    +0.000 OA
ATOM      3  C   UNL     1      11.228  -9.935  -6.411  0.00  0.00    +0.000 A 
ATOM      4  C   UNL     1       9.972  -8.323  -7.623  0.00  0.00    +0.000 A 
ATOM      5  C   UNL     1      11.019  -8.601  -6.767  0.00  0.00    +0.000 A 
ATOM      6  C   UNL     1       9.156  -9.315  -8.115  0.00  0.00    +0.000 A 
ATOM      7  C   UNL     1      10.394 -10.949  -6.914  0.00  0.00    +0.000 A 
ATOM      8  C   UNL     1       9.342 -10.640  -7.779  0.00  0.00    +0.000 A 
ATOM      9  C   UNL     1       8.486  -7.417  -8.909  0.00  0.00    +0.000 C 
ATOM     10  H   UNL     1      11.654  -7.807  -6.390  0.00  0.00    +0.000 HD
ATOM     11  H   UNL     1      10.563 -11.987  -6.635  0.00  0.00    +0.000 HD
ATOM     12  H   UNL     1       8.696 -11.419  -8.169  0.00  0.00    +0.000 HD
ATOM     13  H   UNL     1       8.694  -7.081  -9.931  0.00  0.00    +0.000 HD
ATOM     14  H   UNL     1       7.607  -6.880  -8.534  0.00  0.00    +0.000 HD
ENDROOT
BRANCH   3  15
ATOM     15  C   UNL     1      12.347 -10.289  -5.490  0.00  0.00    +0.000 C 
ATOM     16  H   UNL     1      12.956 -11.087  -5.934  0.00  0.00    +0.000 HD
ATOM     17  H   UNL     1      13.028  -9.434  -5.387  0.00  0.00    +0.000 HD
BRANCH  15  18
ATOM     18  C   UNL     1      11.845 -10.726  -4.108  0.00  0.00    +0.000 C 
ATOM     19  H   UNL     1      12.160 -11.756  -3.902  0.00  0.00    +0.000 HD
ATOM     20  H   UNL     1      10.749 -10.693  -4.081  0.00  0.00    +0.000 HD
BRANCH  18  22
ATOM     21  O   UNL     1      13.559  -9.606  -2.822  0.00  0.00    +0.000 OA
ATOM     22  C   UNL     1      12.364  -9.847  -2.983  0.00  0.00    +0.000 C 
BRANCH  22  23
ATOM     23  C   UNL     1      11.323  -9.277  -2.055  0.00  0.00    +0.000 C 
ATOM     24  H   UNL     1      10.325  -9.464  -2.459  0.00  0.00    +0.000 HD
ATOM     25  H   UNL     1      11.404  -9.755  -1.076  0.00  0.00    +0.000 HD
ATOM     26  H   UNL     1      11.469  -8.197  -1.960  0.00  0.00    +0.000 HD
ENDBRANCH  22  23
ENDBRANCH  18  22
ENDBRANCH  15  18
ENDBRANCH   3  15
TORSDOF 4
ENDMDL
MODEL 7
REMARK VINA RESULT:    -4.846      9.734     11.824
REMARK INTER + INTRA:          -6.032
REMARK INTER:                  -5.631
REMARK INTRA:                  -0.401
REMARK UNBOUND:                -0.194
REMARK  Name = 62098
REMARK  4 active torsions:
REMARK  status: ('A' for Active; 'I' for Inactive)
REMARK    1  A    between atoms: C_4  and  C_5
REMARK    2  A    between atoms: C_4  and  C_6
REMARK    3  A    between atoms: C_6  and  C_13
REMARK    4  A    between atoms: C_13  and  C_14
REMARK                            x       y       z     vdW  Elec       q    Type
REMARK                         _______ _______ _______ _____ _____    ______ ____
ROOT
ATOM      1  O   UNL     1      13.902  11.758   4.115  0.00  0.00    +0.000 OA
ATOM      2  O   UNL     1      14.878  10.611   5.997  0.00  0.00    +0.000 OA
ATOM      3  C   UNL     1      16.095   9.492   2.241  0.00  0.00    +0.000 A 
ATOM      4  C   UNL     1      14.800  10.809   3.734  0.00  0.00    +0.000 A 
ATOM      5  C   UNL     1      15.149  10.500   2.435  0.00  0.00    +0.000 A 
ATOM      6  C   UNL     1      15.357  10.155   4.809  0.00  0.00    +0.000 A 
ATOM      7  C   UNL     1      16.665   8.823   3.338  0.00  0.00    +0.000 A 
ATOM      8  C   UNL     1      16.294   9.155   4.643  0.00  0.00    +0.000 A 
ATOM      9  C   UNL     1      13.957  11.627   5.551  0.00  0.00    +0.000 C 
ATOM     10  H   UNL     1      14.699  11.024   1.599  0.00  0.00    +0.000 HD
ATOM     11  H   UNL     1      17.399   8.037   3.181  0.00  0.00    +0.000 HD
ATOM     12  H   UNL     1      16.730   8.642   5.492  0.00  0.00    +0.000 HD
ATOM     13  H   UNL     1      12.955  11.378   5.919  0.00  0.00    +0.000 HD
ATOM     14  H   UNL     1      14.259  12.589   5.980  0.00  0.00    +0.000 HD
ENDROOT
BRANCH   3  15
ATOM     15  C   UNL     1      16.506   9.119   0.855  0.00  0.00    +0.000 C 
ATOM     16  H   UNL     1      16.062   8.152   0.584  0.00  0.00    +0.000 HD
ATOM     17  H   UNL     1      16.087   9.837   0.138  0.00  0.00    +0.000 HD
BRANCH  15  18
ATOM     18  C   UNL     1      18.029   9.055   0.698  0.00  0.00    +0.000 C 
ATOM     19  H   UNL     1      18.292   8.491  -0.205  0.00  0.00    +0.000 HD
ATOM     20  H   UNL     1      18.473   8.541   1.560  0.00  0.00    +0.000 HD
BRANCH  18  22
ATOM     21  O   UNL     1      19.588  10.791   1.332  0.00  0.00    +0.000 OA
ATOM     22  C   UNL     1      18.674  10.425   0.594  0.00  0.00    +0.000 C 
BRANCH  22  23
ATOM     23  C   UNL     1      18.129  11.335  -0.476  0.00  0.00    +0.000 C 
ATOM     24  H   UNL     1      17.058  11.157  -0.602  0.00  0.00    +0.000 HD
ATOM     25  H   UNL     1      18.282  12.376  -0.184  0.00  0.00    +0.000 HD
ATOM     26  H   UNL     1      18.635  11.131  -1.424  0.00  0.00    +0.000 HD
ENDBRANCH  22  23
ENDBRANCH  18  22
ENDBRANCH  15  18
ENDBRANCH   3  15
TORSDOF 4
ENDMDL
MODEL 8
REMARK VINA RESULT:    -4.770     10.975     12.268
REMARK INTER + INTRA:          -5.940
REMARK INTER:                  -5.709
REMARK INTRA:                  -0.231
REMARK UNBOUND:                -0.194
REMARK  Name = 62098
REMARK  4 active torsions:
REMARK  status: ('A' for Active; 'I' for Inactive)
REMARK    1  A    between atoms: C_4  and  C_5
REMARK    2  A    between atoms: C_4  and  C_6
REMARK    3  A    between atoms: C_6  and  C_13
REMARK    4  A    between atoms: C_13  and  C_14
REMARK                            x       y       z     vdW  Elec       q    Type
REMARK                         _______ _______ _______ _____ _____    ______ ____
ROOT
ATOM      1  O   UNL     1      20.191   8.950  -0.544  0.00  0.00    +0.000 OA
ATOM      2  O   UNL     1      21.261   7.115   0.594  0.00  0.00    +0.000 OA
ATOM      3  C   UNL     1      17.664   8.437   2.066  0.00  0.00    +0.000 A 
ATOM      4  C   UNL     1      19.469   8.512   0.523  0.00  0.00    +0.000 A 
ATOM      5  C   UNL     1      18.258   9.022   0.945  0.00  0.00    +0.000 A 
ATOM      6  C   UNL     1      20.080   7.464   1.172  0.00  0.00    +0.000 A 
ATOM      7  C   UNL     1      18.288   7.366   2.730  0.00  0.00    +0.000 A 
ATOM      8  C   UNL     1      19.514   6.869   2.281  0.00  0.00    +0.000 A 
ATOM      9  C   UNL     1      21.326   8.061  -0.493  0.00  0.00    +0.000 C 
ATOM     10  H   UNL     1      17.791   9.850   0.423  0.00  0.00    +0.000 HD
ATOM     11  H   UNL     1      17.822   6.916   3.603  0.00  0.00    +0.000 HD
ATOM     12  H   UNL     1      19.998   6.044   2.790  0.00  0.00    +0.000 HD
ATOM     13  H   UNL     1      22.237   8.660  -0.383  0.00  0.00    +0.000 HD
ATOM     14  H   UNL     1      21.381   7.508  -1.438  0.00  0.00    +0.000 HD
ENDROOT
BRANCH   3  15
ATOM     15  C   UNL     1      16.356   8.953   2.564  0.00  0.00    +0.000 C 
ATOM     16  H   UNL     1      15.701   8.112   2.828  0.00  0.00    +0.000 HD
ATOM     17  H   UNL     1      16.506   9.503   3.503  0.00  0.00    +0.000 HD
BRANCH  15  18
ATOM     18  C   UNL     1      15.658   9.853   1.539  0.00  0.00    +0.000 C 
ATOM     19  H   UNL     1      14.741   9.372   1.177  0.00  0.00    +0.000 HD
ATOM     20  H   UNL     1      16.316  10.020   0.678  0.00  0.00    +0.000 HD
BRANCH  18  22
ATOM     21  O   UNL     1      16.108  12.082   2.361  0.00  0.00    +0.000 OA
ATOM     22  C   UNL     1      15.278  11.211   2.102  0.00  0.00    +0.000 C 
BRANCH  22  23
ATOM     23  C   UNL     1      13.808  11.445   2.335  0.00  0.00    +0.000 C 
ATOM     24  H   UNL     1      13.473  12.304   1.747  0.00  0.00    +0.000 HD
ATOM     25  H   UNL     1      13.243  10.564   2.025  0.00  0.00    +0.000 HD
ATOM     26  H   UNL     1      13.633  11.653   3.394  0.00  0.00    +0.000 HD
ENDBRANCH  22  23
ENDBRANCH  18  22
ENDBRANCH  15  18
ENDBRANCH   3  15
TORSDOF 4
ENDMDL
MODEL 9
REMARK VINA RESULT:    -4.760      9.956     11.033
REMARK INTER + INTRA:          -5.928
REMARK INTER:                  -5.734
REMARK INTRA:                  -0.194
REMARK UNBOUND:                -0.194
REMARK  Name = 62098
REMARK  4 active torsions:
REMARK  status: ('A' for Active; 'I' for Inactive)
REMARK    1  A    between atoms: C_4  and  C_5
REMARK    2  A    between atoms: C_4  and  C_6
REMARK    3  A    between atoms: C_6  and  C_13
REMARK    4  A    between atoms: C_13  and  C_14
REMARK                            x       y       z     vdW  Elec       q    Type
REMARK                         _______ _______ _______ _____ _____    ______ ____
ROOT
ATOM      1  O   UNL     1      17.138   8.503   2.158  0.00  0.00    +0.000 OA
ATOM      2  O   UNL     1      15.865   9.862   0.629  0.00  0.00    +0.000 OA
ATOM      3  C   UNL     1      15.194  10.372   4.646  0.00  0.00    +0.000 A 
ATOM      4  C   UNL     1      16.282   9.343   2.802  0.00  0.00    +0.000 A 
ATOM      5  C   UNL     1      16.124   9.446   4.169  0.00  0.00    +0.000 A 
ATOM      6  C   UNL     1      15.556  10.119   1.928  0.00  0.00    +0.000 A 
ATOM      7  C   UNL     1      14.451  11.165   3.753  0.00  0.00    +0.000 A 
ATOM      8  C   UNL     1      14.631  11.041   2.374  0.00  0.00    +0.000 A 
ATOM      9  C   UNL     1      16.867   8.837   0.781  0.00  0.00    +0.000 C 
ATOM     10  H   UNL     1      16.703   8.825   4.844  0.00  0.00    +0.000 HD
ATOM     11  H   UNL     1      13.726  11.883   4.130  0.00  0.00    +0.000 HD
ATOM     12  H   UNL     1      14.060  11.650   1.682  0.00  0.00    +0.000 HD
ATOM     13  H   UNL     1      16.528   7.933   0.261  0.00  0.00    +0.000 HD
ATOM     14  H   UNL     1      17.797   9.182   0.315  0.00  0.00    +0.000 HD
ENDROOT
BRANCH   3  15
ATOM     15  C   UNL     1      14.984  10.521   6.115  0.00  0.00    +0.000 C 
ATOM     16  H   UNL     1      15.292  11.526   6.435  0.00  0.00    +0.000 HD
ATOM     17  H   UNL     1      13.912  10.465   6.345  0.00  0.00    +0.000 HD
BRANCH  15  18
ATOM     18  C   UNL     1      15.746   9.463   6.921  0.00  0.00    +0.000 C 
ATOM     19  H   UNL     1      16.692   9.878   7.290  0.00  0.00    +0.000 HD
ATOM     20  H   UNL     1      15.978   8.602   6.282  0.00  0.00    +0.000 HD
BRANCH  18  22
ATOM     21  O   UNL     1      13.999   9.551   8.591  0.00  0.00    +0.000 OA
ATOM     22  C   UNL     1      14.965   8.953   8.119  0.00  0.00    +0.000 C 
BRANCH  22  23
ATOM     23  C   UNL     1      15.441   7.654   8.717  0.00  0.00    +0.000 C 
ATOM     24  H   UNL     1      16.413   7.386   8.293  0.00  0.00    +0.000 HD
ATOM     25  H   UNL     1      15.545   7.764   9.798  0.00  0.00    +0.000 HD
ATOM     26  H   UNL     1      14.725   6.860   8.486  0.00  0.00    +0.000 HD
ENDBRANCH  22  23
ENDBRANCH  18  22
ENDBRANCH  15  18
ENDBRANCH   3  15
TORSDOF 4
ENDMDL
MODEL 10
REMARK VINA RESULT:    -4.727     25.690     27.782
REMARK INTER + INTRA:          -5.888
REMARK INTER:                  -5.568
REMARK INTRA:                  -0.320
REMARK UNBOUND:                -0.194
REMARK  Name = 62098
REMARK  4 active torsions:
REMARK  status: ('A' for Active; 'I' for Inactive)
REMARK    1  A    between atoms: C_4  and  C_5
REMARK    2  A    between atoms: C_4  and  C_6
REMARK    3  A    between atoms: C_6  and  C_13
REMARK    4  A    between atoms: C_13  and  C_14
REMARK                            x       y       z     vdW  Elec       q    Type
REMARK                         _______ _______ _______ _____ _____    ______ ____
ROOT
ATOM      1  O   UNL     1      -6.674  10.685  18.649  0.00  0.00    +0.000 OA
ATOM      2  O   UNL     1      -7.648  11.938  20.462  0.00  0.00    +0.000 OA
ATOM      3  C   UNL     1      -8.507   7.931  20.235  0.00  0.00    +0.000 A 
ATOM      4  C   UNL     1      -7.449   9.910  19.456  0.00  0.00    +0.000 A 
ATOM      5  C   UNL     1      -7.681   8.559  19.300  0.00  0.00    +0.000 A 
ATOM      6  C   UNL     1      -8.004  10.626  20.492  0.00  0.00    +0.000 A 
ATOM      7  C   UNL     1      -9.075   8.663  21.293  0.00  0.00    +0.000 A 
ATOM      8  C   UNL     1      -8.824  10.030  21.428  0.00  0.00    +0.000 A 
ATOM      9  C   UNL     1      -6.805  11.970  19.293  0.00  0.00    +0.000 C 
ATOM     10  H   UNL     1      -7.237   8.009  18.477  0.00  0.00    +0.000 HD
ATOM     11  H   UNL     1      -9.720   8.169  22.017  0.00  0.00    +0.000 HD
ATOM     12  H   UNL     1      -9.260  10.597  22.242  0.00  0.00    +0.000 HD
ATOM     13  H   UNL     1      -7.228  12.681  18.574  0.00  0.00    +0.000 HD
ATOM     14  H   UNL     1      -5.808  12.318  19.586  0.00  0.00    +0.000 HD
ENDROOT
BRANCH   3  15
ATOM     15  C   UNL     1      -8.791   6.472  20.111  0.00  0.00    +0.000 C 
ATOM     16  H   UNL     1      -9.767   6.323  19.631  0.00  0.00    +0.000 HD
ATOM     17  H   UNL     1      -8.065   6.009  19.430  0.00  0.00    +0.000 HD
BRANCH  15  18
ATOM     18  C   UNL     1      -8.764   5.757  21.467  0.00  0.00    +0.000 C 
ATOM     19  H   UNL     1      -9.721   5.250  21.645  0.00  0.00    +0.000 HD
ATOM     20  H   UNL     1      -8.612   6.487  22.271  0.00  0.00    +0.000 HD
BRANCH  18  22
ATOM     21  O   UNL     1      -7.694   3.788  22.373  0.00  0.00    +0.000 OA
ATOM     22  C   UNL     1      -7.662   4.718  21.569  0.00  0.00    +0.000 C 
BRANCH  22  23
ATOM     23  C   UNL     1      -6.502   4.886  20.621  0.00  0.00    +0.000 C 
ATOM     24  H   UNL     1      -6.390   5.941  20.358  0.00  0.00    +0.000 HD
ATOM     25  H   UNL     1      -5.584   4.542  21.102  0.00  0.00    +0.000 HD
ATOM     26  H   UNL     1      -6.689   4.312  19.709  0.00  0.00    +0.000 HD
ENDBRANCH  22  23
ENDBRANCH  18  22
ENDBRANCH  15  18
ENDBRANCH   3  15
TORSDOF 4
ENDMDL
