MODEL 1
REMARK VINA RESULT:    -3.046      0.000      0.000
REMARK INTER + INTRA:          -3.046
REMARK INTER:                  -3.046
REMARK INTRA:                   0.000
REMARK UNBOUND:                 0.000
REMARK  Name = 9261
REMARK  0 active torsions:
REMARK  status: ('A' for Active; 'I' for Inactive)
REMARK                            x       y       z     vdW  Elec       q    Type
REMARK                         _______ _______ _______ _____ _____    ______ ____
ROOT
ATOM      1  N   UNL     1     -14.899   0.486  11.838  0.00  0.00    +0.000 NA
ATOM      2  N   UNL     1     -14.576  -1.682  10.090  0.00  0.00    +0.000 NA
ATOM      3  C   UNL     1     -15.215  -0.773  12.198  0.00  0.00    +0.000 A 
ATOM      4  C   UNL     1     -15.056  -1.839  11.339  0.00  0.00    +0.000 A 
ATOM      5  C   UNL     1     -14.418   0.643  10.589  0.00  0.00    +0.000 A 
ATOM      6  C   UNL     1     -14.260  -0.423   9.730  0.00  0.00    +0.000 A 
ATOM      7  H   UNL     1     -15.600  -0.899  13.202  0.00  0.00    +0.000 HD
ATOM      8  H   UNL     1     -15.310  -2.851  11.630  0.00  0.00    +0.000 HD
ATOM      9  H   UNL     1     -14.164   1.655  10.299  0.00  0.00    +0.000 HD
ATOM     10  H   UNL     1     -13.874  -0.297   8.726  0.00  0.00    +0.000 HD
ENDROOT
TORSDOF 0
ENDMDL
MODEL 2
REMARK VINA RESULT:    -2.992     21.979     22.875
REMARK INTER + INTRA:          -2.992
REMARK INTER:                  -2.992
REMARK INTRA:                   0.000
REMARK UNBOUND:                 0.000
REMARK  Name = 9261
REMARK  0 active torsions:
REMARK  status: ('A' for Active; 'I' for Inactive)
REMARK                            x       y       z     vdW  Elec       q    Type
REMARK                         _______ _______ _______ _____ _____    ______ ____
ROOT
ATOM      1  N   UNL     1       3.886  -2.475  -1.479  0.00  0.00    +0.000 NA
ATOM      2  N   UNL     1       5.488  -4.198   0.047  0.00  0.00    +0.000 NA
ATOM      3  C   UNL     1       3.553  -2.833  -0.223  0.00  0.00    +0.000 A 
ATOM      4  C   UNL     1       4.341  -3.680   0.527  0.00  0.00    +0.000 A 
ATOM      5  C   UNL     1       5.033  -2.993  -1.959  0.00  0.00    +0.000 A 
ATOM      6  C   UNL     1       5.821  -3.840  -1.209  0.00  0.00    +0.000 A 
ATOM      7  H   UNL     1       2.631  -2.417   0.163  0.00  0.00    +0.000 HD
ATOM      8  H   UNL     1       4.072  -3.967   1.536  0.00  0.00    +0.000 HD
ATOM      9  H   UNL     1       5.301  -2.706  -2.968  0.00  0.00    +0.000 HD
ATOM     10  H   UNL     1       6.742  -4.256  -1.595  0.00  0.00    +0.000 HD
ENDROOT
TORSDOF 0
ENDMDL
MODEL 3
REMARK VINA RESULT:    -2.945     27.633     28.503
REMARK INTER + INTRA:          -2.945
REMARK INTER:                  -2.945
REMARK INTRA:                   0.000
REMARK UNBOUND:                 0.000
REMARK  Name = 9261
REMARK  0 active torsions:
REMARK  status: ('A' for Active; 'I' for Inactive)
REMARK                            x       y       z     vdW  Elec       q    Type
REMARK                         _______ _______ _______ _____ _____    ______ ____
ROOT
ATOM      1  N   UNL     1       8.520  -8.543  -0.501  0.00  0.00    +0.000 NA
ATOM      2  N   UNL     1      10.555 -10.235  -1.428  0.00  0.00    +0.000 NA
ATOM      3  C   UNL     1       9.716  -8.068  -0.899  0.00  0.00    +0.000 A 
ATOM      4  C   UNL     1      10.717  -8.899  -1.354  0.00  0.00    +0.000 A 
ATOM      5  C   UNL     1       8.358  -9.879  -0.574  0.00  0.00    +0.000 A 
ATOM      6  C   UNL     1       9.358 -10.710  -1.029  0.00  0.00    +0.000 A 
ATOM      7  H   UNL     1       9.846  -6.995  -0.840  0.00  0.00    +0.000 HD
ATOM      8  H   UNL     1      11.678  -8.516  -1.674  0.00  0.00    +0.000 HD
ATOM      9  H   UNL     1       7.397 -10.262  -0.254  0.00  0.00    +0.000 HD
ATOM     10  H   UNL     1       9.229 -11.783  -1.088  0.00  0.00    +0.000 HD
ENDROOT
TORSDOF 0
ENDMDL
MODEL 4
REMARK VINA RESULT:    -2.754     23.747     24.680
REMARK INTER + INTRA:          -2.754
REMARK INTER:                  -2.754
REMARK INTRA:                   0.000
REMARK UNBOUND:                 0.000
REMARK  Name = 9261
REMARK  0 active torsions:
REMARK  status: ('A' for Active; 'I' for Inactive)
REMARK                            x       y       z     vdW  Elec       q    Type
REMARK                         _______ _______ _______ _____ _____    ______ ____
ROOT
ATOM      1  N   UNL     1       5.390 -12.608   0.843  0.00  0.00    +0.000 NA
ATOM      2  N   UNL     1       3.179 -11.247  -0.217  0.00  0.00    +0.000 NA
ATOM      3  C   UNL     1       5.310 -12.286  -0.464  0.00  0.00    +0.000 A 
ATOM      4  C   UNL     1       4.223 -11.617  -0.984  0.00  0.00    +0.000 A 
ATOM      5  C   UNL     1       4.346 -12.238   1.610  0.00  0.00    +0.000 A 
ATOM      6  C   UNL     1       3.260 -11.569   1.089  0.00  0.00    +0.000 A 
ATOM      7  H   UNL     1       6.149 -12.583  -1.080  0.00  0.00    +0.000 HD
ATOM      8  H   UNL     1       4.160 -11.359  -2.034  0.00  0.00    +0.000 HD
ATOM      9  H   UNL     1       4.410 -12.496   2.660  0.00  0.00    +0.000 HD
ATOM     10  H   UNL     1       2.421 -11.272   1.706  0.00  0.00    +0.000 HD
ENDROOT
TORSDOF 0
ENDMDL
MODEL 5
REMARK VINA RESULT:    -2.710     25.529     26.346
REMARK INTER + INTRA:          -2.710
REMARK INTER:                  -2.710
REMARK INTRA:                   0.000
REMARK UNBOUND:                 0.000
REMARK  Name = 9261
REMARK  0 active torsions:
REMARK  status: ('A' for Active; 'I' for Inactive)
REMARK                            x       y       z     vdW  Elec       q    Type
REMARK                         _______ _______ _______ _____ _____    ______ ____
ROOT
ATOM      1  N   UNL     1       7.850  -3.018   0.607  0.00  0.00    +0.000 NA
ATOM      2  N   UNL     1       9.994  -2.825  -1.190  0.00  0.00    +0.000 NA
ATOM      3  C   UNL     1       8.082  -3.959  -0.330  0.00  0.00    +0.000 A 
ATOM      4  C   UNL     1       9.136  -3.864  -1.213  0.00  0.00    +0.000 A 
ATOM      5  C   UNL     1       8.709  -1.980   0.630  0.00  0.00    +0.000 A 
ATOM      6  C   UNL     1       9.762  -1.885  -0.253  0.00  0.00    +0.000 A 
ATOM      7  H   UNL     1       7.393  -4.793  -0.349  0.00  0.00    +0.000 HD
ATOM      8  H   UNL     1       9.322  -4.620  -1.966  0.00  0.00    +0.000 HD
ATOM      9  H   UNL     1       8.523  -1.224   1.383  0.00  0.00    +0.000 HD
ATOM     10  H   UNL     1      10.452  -1.051  -0.234  0.00  0.00    +0.000 HD
ENDROOT
TORSDOF 0
ENDMDL
MODEL 6
REMARK VINA RESULT:    -2.699     22.876     23.728
REMARK INTER + INTRA:          -2.699
REMARK INTER:                  -2.699
REMARK INTRA:                   0.000
REMARK UNBOUND:                 0.000
REMARK  Name = 9261
REMARK  0 active torsions:
REMARK  status: ('A' for Active; 'I' for Inactive)
REMARK                            x       y       z     vdW  Elec       q    Type
REMARK                         _______ _______ _______ _____ _____    ______ ____
ROOT
ATOM      1  N   UNL     1       4.253 -12.215   1.252  0.00  0.00    +0.000 NA
ATOM      2  N   UNL     1       2.822 -13.427   3.336  0.00  0.00    +0.000 NA
ATOM      3  C   UNL     1       3.201 -11.612   1.839  0.00  0.00    +0.000 A 
ATOM      4  C   UNL     1       2.497 -12.208   2.864  0.00  0.00    +0.000 A 
ATOM      5  C   UNL     1       4.577 -13.435   1.724  0.00  0.00    +0.000 A 
ATOM      6  C   UNL     1       3.874 -14.030   2.749  0.00  0.00    +0.000 A 
ATOM      7  H   UNL     1       2.940 -10.633   1.459  0.00  0.00    +0.000 HD
ATOM      8  H   UNL     1       1.652 -11.722   3.335  0.00  0.00    +0.000 HD
ATOM      9  H   UNL     1       5.423 -13.920   1.253  0.00  0.00    +0.000 HD
ATOM     10  H   UNL     1       4.134 -15.010   3.128  0.00  0.00    +0.000 HD
ENDROOT
TORSDOF 0
ENDMDL
MODEL 7
REMARK VINA RESULT:    -2.675     17.403     17.573
REMARK INTER + INTRA:          -2.675
REMARK INTER:                  -2.675
REMARK INTRA:                   0.000
REMARK UNBOUND:                 0.000
REMARK  Name = 9261
REMARK  0 active torsions:
REMARK  status: ('A' for Active; 'I' for Inactive)
REMARK                            x       y       z     vdW  Elec       q    Type
REMARK                         _______ _______ _______ _____ _____    ______ ____
ROOT
ATOM      1  N   UNL     1       0.569  -5.254  14.801  0.00  0.00    +0.000 NA
ATOM      2  N   UNL     1       2.164  -7.559  14.873  0.00  0.00    +0.000 NA
ATOM      3  C   UNL     1       0.166  -6.381  15.421  0.00  0.00    +0.000 A 
ATOM      4  C   UNL     1       0.950  -7.514  15.457  0.00  0.00    +0.000 A 
ATOM      5  C   UNL     1       1.782  -5.299  14.217  0.00  0.00    +0.000 A 
ATOM      6  C   UNL     1       2.566  -6.432  14.253  0.00  0.00    +0.000 A 
ATOM      7  H   UNL     1      -0.809  -6.344  15.890  0.00  0.00    +0.000 HD
ATOM      8  H   UNL     1       0.626  -8.419  15.955  0.00  0.00    +0.000 HD
ATOM      9  H   UNL     1       2.106  -4.394  13.719  0.00  0.00    +0.000 HD
ATOM     10  H   UNL     1       3.541  -6.469  13.784  0.00  0.00    +0.000 HD
ENDROOT
TORSDOF 0
ENDMDL
MODEL 8
REMARK VINA RESULT:    -2.668      5.999      6.448
REMARK INTER + INTRA:          -2.668
REMARK INTER:                  -2.668
REMARK INTRA:                   0.000
REMARK UNBOUND:                 0.000
REMARK  Name = 9261
REMARK  0 active torsions:
REMARK  status: ('A' for Active; 'I' for Inactive)
REMARK                            x       y       z     vdW  Elec       q    Type
REMARK                         _______ _______ _______ _____ _____    ______ ____
ROOT
ATOM      1  N   UNL     1     -21.604  -3.206   9.405  0.00  0.00    +0.000 NA
ATOM      2  N   UNL     1     -19.312  -1.593   9.326  0.00  0.00    +0.000 NA
ATOM      3  C   UNL     1     -20.832  -3.011  10.492  0.00  0.00    +0.000 A 
ATOM      4  C   UNL     1     -19.706  -2.218  10.453  0.00  0.00    +0.000 A 
ATOM      5  C   UNL     1     -21.211  -2.581   8.278  0.00  0.00    +0.000 A 
ATOM      6  C   UNL     1     -20.085  -1.788   8.239  0.00  0.00    +0.000 A 
ATOM      7  H   UNL     1     -21.148  -3.513  11.398  0.00  0.00    +0.000 HD
ATOM      8  H   UNL     1     -19.085  -2.061  11.327  0.00  0.00    +0.000 HD
ATOM      9  H   UNL     1     -21.831  -2.737   7.404  0.00  0.00    +0.000 HD
ATOM     10  H   UNL     1     -19.769  -1.286   7.334  0.00  0.00    +0.000 HD
ENDROOT
TORSDOF 0
ENDMDL
MODEL 9
REMARK VINA RESULT:    -2.644     24.922     25.818
REMARK INTER + INTRA:          -2.644
REMARK INTER:                  -2.644
REMARK INTRA:                   0.000
REMARK UNBOUND:                 0.000
REMARK  Name = 9261
REMARK  0 active torsions:
REMARK  status: ('A' for Active; 'I' for Inactive)
REMARK                            x       y       z     vdW  Elec       q    Type
REMARK                         _______ _______ _______ _____ _____    ______ ____
ROOT
ATOM      1  N   UNL     1       7.978  -2.600  -2.428  0.00  0.00    +0.000 NA
ATOM      2  N   UNL     1       7.307  -4.459  -0.439  0.00  0.00    +0.000 NA
ATOM      3  C   UNL     1       6.700  -2.947  -2.179  0.00  0.00    +0.000 A 
ATOM      4  C   UNL     1       6.370  -3.861  -1.201  0.00  0.00    +0.000 A 
ATOM      5  C   UNL     1       8.915  -3.198  -1.667  0.00  0.00    +0.000 A 
ATOM      6  C   UNL     1       8.585  -4.112  -0.689  0.00  0.00    +0.000 A 
ATOM      7  H   UNL     1       5.947  -2.467  -2.790  0.00  0.00    +0.000 HD
ATOM      8  H   UNL     1       5.343  -4.139  -1.001  0.00  0.00    +0.000 HD
ATOM      9  H   UNL     1       9.942  -2.919  -1.867  0.00  0.00    +0.000 HD
ATOM     10  H   UNL     1       9.338  -4.592  -0.077  0.00  0.00    +0.000 HD
ENDROOT
TORSDOF 0
ENDMDL
MODEL 10
REMARK VINA RESULT:    -2.644     26.052     26.703
REMARK INTER + INTRA:          -2.644
REMARK INTER:                  -2.644
REMARK INTRA:                   0.000
REMARK UNBOUND:                 0.000
REMARK  Name = 9261
REMARK  0 active torsions:
REMARK  status: ('A' for Active; 'I' for Inactive)
REMARK                            x       y       z     vdW  Elec       q    Type
REMARK                         _______ _______ _______ _____ _____    ______ ____
ROOT
ATOM      1  N   UNL     1       6.989  13.572   1.482  0.00  0.00    +0.000 NA
ATOM      2  N   UNL     1       5.194  11.806   0.248  0.00  0.00    +0.000 NA
ATOM      3  C   UNL     1       6.309  12.642   2.181  0.00  0.00    +0.000 A 
ATOM      4  C   UNL     1       5.427  11.774   1.575  0.00  0.00    +0.000 A 
ATOM      5  C   UNL     1       6.756  13.604   0.155  0.00  0.00    +0.000 A 
ATOM      6  C   UNL     1       5.874  12.736  -0.452  0.00  0.00    +0.000 A 
ATOM      7  H   UNL     1       6.496  12.616   3.247  0.00  0.00    +0.000 HD
ATOM      8  H   UNL     1       4.882  11.026   2.137  0.00  0.00    +0.000 HD
ATOM      9  H   UNL     1       7.301  14.351  -0.408  0.00  0.00    +0.000 HD
ATOM     10  H   UNL     1       5.687  12.762  -1.517  0.00  0.00    +0.000 HD
ENDROOT
TORSDOF 0
ENDMDL
