MODEL 1
REMARK VINA RESULT:    -5.584      0.000      0.000
REMARK INTER + INTRA:          -6.727
REMARK INTER:                  -6.566
REMARK INTRA:                  -0.161
REMARK UNBOUND:                -0.164
REMARK  Name = 637563
REMARK  4 active torsions:
REMARK  status: ('A' for Active; 'I' for Inactive)
REMARK    1  A    between atoms: O_1  and  C_5
REMARK    2  A    between atoms: O_1  and  C_11
REMARK    3  A    between atoms: C_2  and  C_8
REMARK    4  A    between atoms: C_9  and  C_10
REMARK                            x       y       z     vdW  Elec       q    Type
REMARK                         _______ _______ _______ _____ _____    ______ ____
ROOT
ATOM      1  C   UNL     1       3.877  -2.575  -0.894  0.00  0.00    +0.000 A 
ATOM      2  C   UNL     1       4.790  -2.621  -1.948  0.00  0.00    +0.000 A 
ATOM      3  C   UNL     1       4.183  -3.190   0.321  0.00  0.00    +0.000 A 
ATOM      4  C   UNL     1       6.314  -3.896  -0.573  0.00  0.00    +0.000 A 
ATOM      5  C   UNL     1       6.008  -3.281  -1.788  0.00  0.00    +0.000 A 
ATOM      6  C   UNL     1       5.402  -3.850   0.480  0.00  0.00    +0.000 A 
ATOM      7  H   UNL     1       4.587  -2.174  -2.917  0.00  0.00    +0.000 HD
ATOM      8  H   UNL     1       3.484  -3.163   1.153  0.00  0.00    +0.000 HD
ATOM      9  H   UNL     1       6.713  -3.317  -2.614  0.00  0.00    +0.000 HD
ATOM     10  H   UNL     1       5.575  -4.306   1.449  0.00  0.00    +0.000 HD
ENDROOT
BRANCH   1  11
ATOM     11  C   UNL     1       2.607  -1.888  -1.061  0.00  0.00    +0.000 C 
ATOM     12  C   UNL     1       2.353  -0.602  -0.729  0.00  0.00    +0.000 C 
ATOM     13  H   UNL     1       1.798  -2.482  -1.480  0.00  0.00    +0.000 HD
ATOM     14  H   UNL     1       3.118   0.027  -0.283  0.00  0.00    +0.000 HD
BRANCH  12  15
ATOM     15  C   UNL     1       1.026   0.062  -0.910  0.00  0.00    +0.000 C 
ATOM     16  H   UNL     1       0.662  -0.104  -1.929  0.00  0.00    +0.000 HD
ATOM     17  H   UNL     1       0.299  -0.362  -0.210  0.00  0.00    +0.000 HD
ATOM     18  H   UNL     1       1.076   1.141  -0.738  0.00  0.00    +0.000 HD
ENDBRANCH  12  15
ENDBRANCH   1  11
BRANCH   4  19
ATOM     19  O   UNL     1       7.503  -4.540  -0.418  0.00  0.00    +0.000 OA
BRANCH  19  20
ATOM     20  C   UNL     1       8.659  -3.912  -0.968  0.00  0.00    +0.000 C 
ATOM     21  H   UNL     1       9.281  -4.625  -1.519  0.00  0.00    +0.000 HD
ATOM     22  H   UNL     1       9.227  -3.372  -0.202  0.00  0.00    +0.000 HD
ATOM     23  H   UNL     1       8.309  -3.168  -1.690  0.00  0.00    +0.000 HD
ENDBRANCH  19  20
ENDBRANCH   4  19
TORSDOF 4
ENDMDL
MODEL 2
REMARK VINA RESULT:    -5.335      8.378     10.336
REMARK INTER + INTRA:          -6.435
REMARK INTER:                  -6.260
REMARK INTRA:                  -0.175
REMARK UNBOUND:                -0.164
REMARK  Name = 637563
REMARK  4 active torsions:
REMARK  status: ('A' for Active; 'I' for Inactive)
REMARK    1  A    between atoms: O_1  and  C_5
REMARK    2  A    between atoms: O_1  and  C_11
REMARK    3  A    between atoms: C_2  and  C_8
REMARK    4  A    between atoms: C_9  and  C_10
REMARK                            x       y       z     vdW  Elec       q    Type
REMARK                         _______ _______ _______ _____ _____    ______ ____
ROOT
ATOM      1  C   UNL     1      10.624  -9.858  -1.715  0.00  0.00    +0.000 A 
ATOM      2  C   UNL     1      10.127 -11.140  -1.951  0.00  0.00    +0.000 A 
ATOM      3  C   UNL     1       9.978  -9.016  -0.809  0.00  0.00    +0.000 A 
ATOM      4  C   UNL     1       8.339 -10.738  -0.376  0.00  0.00    +0.000 A 
ATOM      5  C   UNL     1       8.985 -11.580  -1.281  0.00  0.00    +0.000 A 
ATOM      6  C   UNL     1       8.836  -9.456  -0.140  0.00  0.00    +0.000 A 
ATOM      7  H   UNL     1      10.584 -11.823  -2.661  0.00  0.00    +0.000 HD
ATOM      8  H   UNL     1      10.352  -8.014  -0.613  0.00  0.00    +0.000 HD
ATOM      9  H   UNL     1       8.600 -12.578  -1.472  0.00  0.00    +0.000 HD
ATOM     10  H   UNL     1       8.384  -8.751   0.549  0.00  0.00    +0.000 HD
ENDROOT
BRANCH   1  11
ATOM     11  C   UNL     1      11.814  -9.399  -2.413  0.00  0.00    +0.000 C 
ATOM     12  C   UNL     1      12.713 -10.185  -3.048  0.00  0.00    +0.000 C 
ATOM     13  H   UNL     1      11.984  -8.325  -2.403  0.00  0.00    +0.000 HD
ATOM     14  H   UNL     1      12.604 -11.265  -3.065  0.00  0.00    +0.000 HD
BRANCH  12  15
ATOM     15  C   UNL     1      13.929  -9.669  -3.746  0.00  0.00    +0.000 C 
ATOM     16  H   UNL     1      13.855  -8.585  -3.872  0.00  0.00    +0.000 HD
ATOM     17  H   UNL     1      14.821  -9.886  -3.149  0.00  0.00    +0.000 HD
ATOM     18  H   UNL     1      14.062 -10.120  -4.734  0.00  0.00    +0.000 HD
ENDBRANCH  12  15
ENDBRANCH   1  11
BRANCH   4  19
ATOM     19  O   UNL     1       7.225 -11.167   0.277  0.00  0.00    +0.000 OA
BRANCH  19  20
ATOM     20  C   UNL     1       6.375 -12.077  -0.419  0.00  0.00    +0.000 C 
ATOM     21  H   UNL     1       5.862 -12.756   0.271  0.00  0.00    +0.000 HD
ATOM     22  H   UNL     1       6.917 -12.615  -1.204  0.00  0.00    +0.000 HD
ATOM     23  H   UNL     1       5.602 -11.481  -0.916  0.00  0.00    +0.000 HD
ENDBRANCH  19  20
ENDBRANCH   4  19
TORSDOF 4
ENDMDL
MODEL 3
REMARK VINA RESULT:    -5.169      8.237      9.506
REMARK INTER + INTRA:          -6.240
REMARK INTER:                  -6.062
REMARK INTRA:                  -0.178
REMARK UNBOUND:                -0.164
REMARK  Name = 637563
REMARK  4 active torsions:
REMARK  status: ('A' for Active; 'I' for Inactive)
REMARK    1  A    between atoms: O_1  and  C_5
REMARK    2  A    between atoms: O_1  and  C_11
REMARK    3  A    between atoms: C_2  and  C_8
REMARK    4  A    between atoms: C_9  and  C_10
REMARK                            x       y       z     vdW  Elec       q    Type
REMARK                         _______ _______ _______ _____ _____    ______ ____
ROOT
ATOM      1  C   UNL     1       8.153 -10.897  -0.687  0.00  0.00    +0.000 A 
ATOM      2  C   UNL     1       8.421  -9.582  -0.306  0.00  0.00    +0.000 A 
ATOM      3  C   UNL     1       9.087 -11.609  -1.441  0.00  0.00    +0.000 A 
ATOM      4  C   UNL     1      10.555  -9.689  -1.434  0.00  0.00    +0.000 A 
ATOM      5  C   UNL     1       9.621  -8.978  -0.679  0.00  0.00    +0.000 A 
ATOM      6  C   UNL     1      10.287 -11.005  -1.814  0.00  0.00    +0.000 A 
ATOM      7  H   UNL     1       7.716  -8.984   0.263  0.00  0.00    +0.000 HD
ATOM      8  H   UNL     1       8.896 -12.635  -1.745  0.00  0.00    +0.000 HD
ATOM      9  H   UNL     1       9.822  -7.952  -0.384  0.00  0.00    +0.000 HD
ATOM     10  H   UNL     1      10.968 -11.613  -2.400  0.00  0.00    +0.000 HD
ENDROOT
BRANCH   1  11
ATOM     11  C   UNL     1       6.901 -11.527  -0.299  0.00  0.00    +0.000 C 
ATOM     12  C   UNL     1       6.456 -12.732  -0.722  0.00  0.00    +0.000 C 
ATOM     13  H   UNL     1       6.276 -10.958   0.385  0.00  0.00    +0.000 HD
ATOM     14  H   UNL     1       7.030 -13.329  -1.425  0.00  0.00    +0.000 HD
BRANCH  12  15
ATOM     15  C   UNL     1       5.156 -13.338  -0.303  0.00  0.00    +0.000 C 
ATOM     16  H   UNL     1       5.323 -14.347   0.084  0.00  0.00    +0.000 HD
ATOM     17  H   UNL     1       4.703 -12.734   0.491  0.00  0.00    +0.000 HD
ATOM     18  H   UNL     1       4.444 -13.402  -1.131  0.00  0.00    +0.000 HD
ENDBRANCH  12  15
ENDBRANCH   1  11
BRANCH   4  19
ATOM     19  O   UNL     1      11.726  -9.100  -1.799  0.00  0.00    +0.000 OA
BRANCH  19  20
ATOM     20  C   UNL     1      12.438  -9.688  -2.885  0.00  0.00    +0.000 C 
ATOM     21  H   UNL     1      13.401  -9.193  -3.051  0.00  0.00    +0.000 HD
ATOM     22  H   UNL     1      11.829  -9.724  -3.794  0.00  0.00    +0.000 HD
ATOM     23  H   UNL     1      12.656 -10.724  -2.605  0.00  0.00    +0.000 HD
ENDBRANCH  19  20
ENDBRANCH   4  19
TORSDOF 4
ENDMDL
MODEL 4
REMARK VINA RESULT:    -5.162     17.181     18.472
REMARK INTER + INTRA:          -6.231
REMARK INTER:                  -6.065
REMARK INTRA:                  -0.166
REMARK UNBOUND:                -0.164
REMARK  Name = 637563
REMARK  4 active torsions:
REMARK  status: ('A' for Active; 'I' for Inactive)
REMARK    1  A    between atoms: O_1  and  C_5
REMARK    2  A    between atoms: O_1  and  C_11
REMARK    3  A    between atoms: C_2  and  C_8
REMARK    4  A    between atoms: C_9  and  C_10
REMARK                            x       y       z     vdW  Elec       q    Type
REMARK                         _______ _______ _______ _____ _____    ______ ____
ROOT
ATOM      1  C   UNL     1       1.335  -5.162  16.210  0.00  0.00    +0.000 A 
ATOM      2  C   UNL     1       2.190  -5.949  16.982  0.00  0.00    +0.000 A 
ATOM      3  C   UNL     1      -0.029  -5.454  16.163  0.00  0.00    +0.000 A 
ATOM      4  C   UNL     1       0.320  -7.320  17.658  0.00  0.00    +0.000 A 
ATOM      5  C   UNL     1       1.683  -7.028  17.706  0.00  0.00    +0.000 A 
ATOM      6  C   UNL     1      -0.536  -6.533  16.887  0.00  0.00    +0.000 A 
ATOM      7  H   UNL     1       3.260  -5.772  17.033  0.00  0.00    +0.000 HD
ATOM      8  H   UNL     1      -0.710  -4.851  15.568  0.00  0.00    +0.000 HD
ATOM      9  H   UNL     1       2.354  -7.641  18.301  0.00  0.00    +0.000 HD
ATOM     10  H   UNL     1      -1.604  -6.704  16.806  0.00  0.00    +0.000 HD
ENDROOT
BRANCH   1  11
ATOM     11  C   UNL     1       1.864  -4.038  15.455  0.00  0.00    +0.000 C 
ATOM     12  C   UNL     1       3.142  -3.598  15.479  0.00  0.00    +0.000 C 
ATOM     13  H   UNL     1       1.149  -3.509  14.829  0.00  0.00    +0.000 HD
ATOM     14  H   UNL     1       3.890  -4.074  16.107  0.00  0.00    +0.000 HD
BRANCH  12  15
ATOM     15  C   UNL     1       3.640  -2.430  14.691  0.00  0.00    +0.000 C 
ATOM     16  H   UNL     1       3.367  -2.547  13.638  0.00  0.00    +0.000 HD
ATOM     17  H   UNL     1       3.185  -1.508  15.066  0.00  0.00    +0.000 HD
ATOM     18  H   UNL     1       4.727  -2.324  14.752  0.00  0.00    +0.000 HD
ENDBRANCH  12  15
ENDBRANCH   1  11
BRANCH   4  19
ATOM     19  O   UNL     1      -0.175  -8.373  18.364  0.00  0.00    +0.000 OA
BRANCH  19  20
ATOM     20  C   UNL     1      -0.175  -9.646  17.718  0.00  0.00    +0.000 C 
ATOM     21  H   UNL     1      -1.193 -10.020  17.567  0.00  0.00    +0.000 HD
ATOM     22  H   UNL     1       0.458 -10.366  18.247  0.00  0.00    +0.000 HD
ATOM     23  H   UNL     1       0.264  -9.503  16.725  0.00  0.00    +0.000 HD
ENDBRANCH  19  20
ENDBRANCH   4  19
TORSDOF 4
ENDMDL
MODEL 5
REMARK VINA RESULT:    -5.121     16.673     18.093
REMARK INTER + INTRA:          -6.184
REMARK INTER:                  -6.009
REMARK INTRA:                  -0.175
REMARK UNBOUND:                -0.164
REMARK  Name = 637563
REMARK  4 active torsions:
REMARK  status: ('A' for Active; 'I' for Inactive)
REMARK    1  A    between atoms: O_1  and  C_5
REMARK    2  A    between atoms: O_1  and  C_11
REMARK    3  A    between atoms: C_2  and  C_8
REMARK    4  A    between atoms: C_9  and  C_10
REMARK                            x       y       z     vdW  Elec       q    Type
REMARK                         _______ _______ _______ _____ _____    ______ ____
ROOT
ATOM      1  C   UNL     1       0.283  -7.223  16.341  0.00  0.00    +0.000 A 
ATOM      2  C   UNL     1      -0.082  -5.899  16.584  0.00  0.00    +0.000 A 
ATOM      3  C   UNL     1       1.273  -7.512  15.401  0.00  0.00    +0.000 A 
ATOM      4  C   UNL     1       1.532  -5.153  14.949  0.00  0.00    +0.000 A 
ATOM      5  C   UNL     1       0.542  -4.864  15.889  0.00  0.00    +0.000 A 
ATOM      6  C   UNL     1       1.898  -6.477  14.706  0.00  0.00    +0.000 A 
ATOM      7  H   UNL     1      -0.861  -5.628  17.291  0.00  0.00    +0.000 HD
ATOM      8  H   UNL     1       1.571  -8.538  15.200  0.00  0.00    +0.000 HD
ATOM      9  H   UNL     1       0.250  -3.835  16.079  0.00  0.00    +0.000 HD
ATOM     10  H   UNL     1       2.658  -6.771  13.990  0.00  0.00    +0.000 HD
ENDROOT
BRANCH   1  11
ATOM     11  C   UNL     1      -0.368  -8.303  17.065  0.00  0.00    +0.000 C 
ATOM     12  C   UNL     1       0.169  -9.515  17.332  0.00  0.00    +0.000 C 
ATOM     13  H   UNL     1      -1.382  -8.102  17.405  0.00  0.00    +0.000 HD
ATOM     14  H   UNL     1       1.167  -9.775  16.992  0.00  0.00    +0.000 HD
BRANCH  12  15
ATOM     15  C   UNL     1      -0.542 -10.600  18.073  0.00  0.00    +0.000 C 
ATOM     16  H   UNL     1      -0.415 -10.460  19.151  0.00  0.00    +0.000 HD
ATOM     17  H   UNL     1      -1.612 -10.567  17.845  0.00  0.00    +0.000 HD
ATOM     18  H   UNL     1      -0.167 -11.594  17.811  0.00  0.00    +0.000 HD
ENDBRANCH  12  15
ENDBRANCH   1  11
BRANCH   4  19
ATOM     19  O   UNL     1       2.141  -4.142  14.270  0.00  0.00    +0.000 OA
BRANCH  19  20
ATOM     20  C   UNL     1       2.124  -2.850  14.875  0.00  0.00    +0.000 C 
ATOM     21  H   UNL     1       1.143  -2.621  15.305  0.00  0.00    +0.000 HD
ATOM     22  H   UNL     1       2.463  -2.076  14.180  0.00  0.00    +0.000 HD
ATOM     23  H   UNL     1       2.839  -2.873  15.703  0.00  0.00    +0.000 HD
ENDBRANCH  19  20
ENDBRANCH   4  19
TORSDOF 4
ENDMDL
MODEL 6
REMARK VINA RESULT:    -5.015     15.085     15.991
REMARK INTER + INTRA:          -6.058
REMARK INTER:                  -5.893
REMARK INTRA:                  -0.165
REMARK UNBOUND:                -0.164
REMARK  Name = 637563
REMARK  4 active torsions:
REMARK  status: ('A' for Active; 'I' for Inactive)
REMARK    1  A    between atoms: O_1  and  C_5
REMARK    2  A    between atoms: O_1  and  C_11
REMARK    3  A    between atoms: C_2  and  C_8
REMARK    4  A    between atoms: C_9  and  C_10
REMARK                            x       y       z     vdW  Elec       q    Type
REMARK                         _______ _______ _______ _____ _____    ______ ____
ROOT
ATOM      1  C   UNL     1       7.334  12.713  -1.397  0.00  0.00    +0.000 A 
ATOM      2  C   UNL     1       6.661  13.552  -2.284  0.00  0.00    +0.000 A 
ATOM      3  C   UNL     1       8.407  11.940  -1.846  0.00  0.00    +0.000 A 
ATOM      4  C   UNL     1       8.130  12.848  -4.068  0.00  0.00    +0.000 A 
ATOM      5  C   UNL     1       7.058  13.621  -3.620  0.00  0.00    +0.000 A 
ATOM      6  C   UNL     1       8.804  12.009  -3.182  0.00  0.00    +0.000 A 
ATOM      7  H   UNL     1       5.809  14.156  -1.985  0.00  0.00    +0.000 HD
ATOM      8  H   UNL     1       8.944  11.281  -1.169  0.00  0.00    +0.000 HD
ATOM      9  H   UNL     1       6.527  14.273  -4.307  0.00  0.00    +0.000 HD
ATOM     10  H   UNL     1       9.643  11.382  -3.463  0.00  0.00    +0.000 HD
ENDROOT
BRANCH   1  11
ATOM     11  C   UNL     1       6.920  12.641  -0.006  0.00  0.00    +0.000 C 
ATOM     12  C   UNL     1       5.968  11.822   0.496  0.00  0.00    +0.000 C 
ATOM     13  H   UNL     1       7.425  13.322   0.675  0.00  0.00    +0.000 HD
ATOM     14  H   UNL     1       5.416  11.141  -0.145  0.00  0.00    +0.000 HD
BRANCH  12  15
ATOM     15  C   UNL     1       5.567  11.788   1.935  0.00  0.00    +0.000 C 
ATOM     16  H   UNL     1       5.549  12.804   2.341  0.00  0.00    +0.000 HD
ATOM     17  H   UNL     1       4.564  11.360   2.032  0.00  0.00    +0.000 HD
ATOM     18  H   UNL     1       6.254  11.191   2.542  0.00  0.00    +0.000 HD
ENDBRANCH  12  15
ENDBRANCH   1  11
BRANCH   4  19
ATOM     19  O   UNL     1       8.517  12.914  -5.371  0.00  0.00    +0.000 OA
BRANCH  19  20
ATOM     20  C   UNL     1       9.832  12.455  -5.682  0.00  0.00    +0.000 C 
ATOM     21  H   UNL     1      10.548  13.283  -5.722  0.00  0.00    +0.000 HD
ATOM     22  H   UNL     1       9.843  11.853  -6.596  0.00  0.00    +0.000 HD
ATOM     23  H   UNL     1      10.147  11.800  -4.863  0.00  0.00    +0.000 HD
ENDBRANCH  19  20
ENDBRANCH   4  19
TORSDOF 4
ENDMDL
MODEL 7
REMARK VINA RESULT:    -5.010     14.970     16.174
REMARK INTER + INTRA:          -6.053
REMARK INTER:                  -5.896
REMARK INTRA:                  -0.157
REMARK UNBOUND:                -0.164
REMARK  Name = 637563
REMARK  4 active torsions:
REMARK  status: ('A' for Active; 'I' for Inactive)
REMARK    1  A    between atoms: O_1  and  C_5
REMARK    2  A    between atoms: O_1  and  C_11
REMARK    3  A    between atoms: C_2  and  C_8
REMARK    4  A    between atoms: C_9  and  C_10
REMARK                            x       y       z     vdW  Elec       q    Type
REMARK                         _______ _______ _______ _____ _____    ______ ____
ROOT
ATOM      1  C   UNL     1       6.890  12.743   0.002  0.00  0.00    +0.000 A 
ATOM      2  C   UNL     1       6.074  11.704   0.449  0.00  0.00    +0.000 A 
ATOM      3  C   UNL     1       7.270  13.759   0.879  0.00  0.00    +0.000 A 
ATOM      4  C   UNL     1       6.016  12.697   2.651  0.00  0.00    +0.000 A 
ATOM      5  C   UNL     1       5.637  11.681   1.773  0.00  0.00    +0.000 A 
ATOM      6  C   UNL     1       6.832  13.736   2.203  0.00  0.00    +0.000 A 
ATOM      7  H   UNL     1       5.737  10.903  -0.202  0.00  0.00    +0.000 HD
ATOM      8  H   UNL     1       7.906  14.576   0.548  0.00  0.00    +0.000 HD
ATOM      9  H   UNL     1       4.997  10.872   2.115  0.00  0.00    +0.000 HD
ATOM     10  H   UNL     1       7.164  14.556   2.831  0.00  0.00    +0.000 HD
ENDROOT
BRANCH   1  11
ATOM     11  C   UNL     1       7.346  12.768  -1.379  0.00  0.00    +0.000 C 
ATOM     12  C   UNL     1       8.353  12.027  -1.894  0.00  0.00    +0.000 C 
ATOM     13  H   UNL     1       6.824  13.458  -2.038  0.00  0.00    +0.000 HD
ATOM     14  H   UNL     1       8.923  11.342  -1.274  0.00  0.00    +0.000 HD
BRANCH  12  15
ATOM     15  C   UNL     1       8.794  12.092  -3.321  0.00  0.00    +0.000 C 
ATOM     16  H   UNL     1       8.508  13.055  -3.755  0.00  0.00    +0.000 HD
ATOM     17  H   UNL     1       9.883  11.997  -3.378  0.00  0.00    +0.000 HD
ATOM     18  H   UNL     1       8.349  11.298  -3.927  0.00  0.00    +0.000 HD
ENDBRANCH  12  15
ENDBRANCH   1  11
BRANCH   4  19
ATOM     19  O   UNL     1       5.589  12.675   3.943  0.00  0.00    +0.000 OA
BRANCH  19  20
ATOM     20  C   UNL     1       4.179  12.711   4.161  0.00  0.00    +0.000 C 
ATOM     21  H   UNL     1       3.903  12.200   5.090  0.00  0.00    +0.000 HD
ATOM     22  H   UNL     1       3.628  12.328   3.297  0.00  0.00    +0.000 HD
ATOM     23  H   UNL     1       3.898  13.763   4.280  0.00  0.00    +0.000 HD
ENDBRANCH  19  20
ENDBRANCH   4  19
TORSDOF 4
ENDMDL
MODEL 8
REMARK VINA RESULT:    -4.917     16.792     17.311
REMARK INTER + INTRA:          -5.944
REMARK INTER:                  -5.789
REMARK INTRA:                  -0.155
REMARK UNBOUND:                -0.164
REMARK  Name = 637563
REMARK  4 active torsions:
REMARK  status: ('A' for Active; 'I' for Inactive)
REMARK    1  A    between atoms: O_1  and  C_5
REMARK    2  A    between atoms: O_1  and  C_11
REMARK    3  A    between atoms: C_2  and  C_8
REMARK    4  A    between atoms: C_9  and  C_10
REMARK                            x       y       z     vdW  Elec       q    Type
REMARK                         _______ _______ _______ _____ _____    ______ ____
ROOT
ATOM      1  C   UNL     1      15.070  10.446   2.500  0.00  0.00    +0.000 A 
ATOM      2  C   UNL     1      15.517  10.007   3.746  0.00  0.00    +0.000 A 
ATOM      3  C   UNL     1      15.571   9.864   1.335  0.00  0.00    +0.000 A 
ATOM      4  C   UNL     1      16.966   8.405   2.664  0.00  0.00    +0.000 A 
ATOM      5  C   UNL     1      16.465   8.987   3.829  0.00  0.00    +0.000 A 
ATOM      6  C   UNL     1      16.519   8.844   1.417  0.00  0.00    +0.000 A 
ATOM      7  H   UNL     1      15.171  10.444   4.678  0.00  0.00    +0.000 HD
ATOM      8  H   UNL     1      15.233  10.192   0.355  0.00  0.00    +0.000 HD
ATOM      9  H   UNL     1      16.813   8.653   4.801  0.00  0.00    +0.000 HD
ATOM     10  H   UNL     1      16.866   8.436   0.474  0.00  0.00    +0.000 HD
ENDROOT
BRANCH   1  11
ATOM     11  C   UNL     1      14.083  11.510   2.413  0.00  0.00    +0.000 C 
ATOM     12  C   UNL     1      14.342  12.836   2.457  0.00  0.00    +0.000 C 
ATOM     13  H   UNL     1      13.048  11.189   2.316  0.00  0.00    +0.000 HD
ATOM     14  H   UNL     1      15.355  13.208   2.580  0.00  0.00    +0.000 HD
BRANCH  12  15
ATOM     15  C   UNL     1      13.292  13.897   2.374  0.00  0.00    +0.000 C 
ATOM     16  H   UNL     1      12.319  13.480   2.649  0.00  0.00    +0.000 HD
ATOM     17  H   UNL     1      13.528  14.709   3.068  0.00  0.00    +0.000 HD
ATOM     18  H   UNL     1      13.211  14.320   1.369  0.00  0.00    +0.000 HD
ENDBRANCH  12  15
ENDBRANCH   1  11
BRANCH   4  19
ATOM     19  O   UNL     1      17.891   7.410   2.744  0.00  0.00    +0.000 OA
BRANCH  19  20
ATOM     20  C   UNL     1      19.229   7.737   2.373  0.00  0.00    +0.000 C 
ATOM     21  H   UNL     1      19.940   7.486   3.169  0.00  0.00    +0.000 HD
ATOM     22  H   UNL     1      19.316   8.780   2.053  0.00  0.00    +0.000 HD
ATOM     23  H   UNL     1      19.486   7.115   1.509  0.00  0.00    +0.000 HD
ENDBRANCH  19  20
ENDBRANCH   4  19
TORSDOF 4
ENDMDL
MODEL 9
REMARK VINA RESULT:    -4.626     16.849     17.459
REMARK INTER + INTRA:          -5.601
REMARK INTER:                  -5.433
REMARK INTRA:                  -0.168
REMARK UNBOUND:                -0.164
REMARK  Name = 637563
REMARK  4 active torsions:
REMARK  status: ('A' for Active; 'I' for Inactive)
REMARK    1  A    between atoms: O_1  and  C_5
REMARK    2  A    between atoms: O_1  and  C_11
REMARK    3  A    between atoms: C_2  and  C_8
REMARK    4  A    between atoms: C_9  and  C_10
REMARK                            x       y       z     vdW  Elec       q    Type
REMARK                         _______ _______ _______ _____ _____    ______ ____
ROOT
ATOM      1  C   UNL     1      16.719   9.148   1.589  0.00  0.00    +0.000 A 
ATOM      2  C   UNL     1      16.916   8.208   2.600  0.00  0.00    +0.000 A 
ATOM      3  C   UNL     1      17.720   9.378   0.645  0.00  0.00    +0.000 A 
ATOM      4  C   UNL     1      19.116   7.726   1.724  0.00  0.00    +0.000 A 
ATOM      5  C   UNL     1      18.114   7.497   2.668  0.00  0.00    +0.000 A 
ATOM      6  C   UNL     1      18.918   8.667   0.713  0.00  0.00    +0.000 A 
ATOM      7  H   UNL     1      16.174   8.010   3.368  0.00  0.00    +0.000 HD
ATOM      8  H   UNL     1      17.583  10.106  -0.150  0.00  0.00    +0.000 HD
ATOM      9  H   UNL     1      18.265   6.769   3.460  0.00  0.00    +0.000 HD
ATOM     10  H   UNL     1      19.653   8.894  -0.052  0.00  0.00    +0.000 HD
ENDROOT
BRANCH   1  11
ATOM     11  C   UNL     1      15.470   9.890   1.519  0.00  0.00    +0.000 C 
ATOM     12  C   UNL     1      14.992  10.727   2.467  0.00  0.00    +0.000 C 
ATOM     13  H   UNL     1      14.877   9.736   0.620  0.00  0.00    +0.000 HD
ATOM     14  H   UNL     1      15.532  10.896   3.394  0.00  0.00    +0.000 HD
BRANCH  12  15
ATOM     15  C   UNL     1      13.696  11.464   2.356  0.00  0.00    +0.000 C 
ATOM     16  H   UNL     1      13.861  12.440   1.891  0.00  0.00    +0.000 HD
ATOM     17  H   UNL     1      12.999  10.897   1.730  0.00  0.00    +0.000 HD
ATOM     18  H   UNL     1      13.227  11.624   3.331  0.00  0.00    +0.000 HD
ENDBRANCH  12  15
ENDBRANCH   1  11
BRANCH   4  19
ATOM     19  O   UNL     1      20.285   7.033   1.790  0.00  0.00    +0.000 OA
BRANCH  19  20
ATOM     20  C   UNL     1      21.141   7.093   0.650  0.00  0.00    +0.000 C 
ATOM     21  H   UNL     1      21.913   7.861   0.766  0.00  0.00    +0.000 HD
ATOM     22  H   UNL     1      20.570   7.214  -0.276  0.00  0.00    +0.000 HD
ATOM     23  H   UNL     1      21.657   6.129   0.583  0.00  0.00    +0.000 HD
ENDBRANCH  19  20
ENDBRANCH   4  19
TORSDOF 4
ENDMDL
MODEL 10
REMARK VINA RESULT:    -4.521     17.028     17.979
REMARK INTER + INTRA:          -5.478
REMARK INTER:                  -5.314
REMARK INTRA:                  -0.164
REMARK UNBOUND:                -0.164
REMARK  Name = 637563
REMARK  4 active torsions:
REMARK  status: ('A' for Active; 'I' for Inactive)
REMARK    1  A    between atoms: O_1  and  C_5
REMARK    2  A    between atoms: O_1  and  C_11
REMARK    3  A    between atoms: C_2  and  C_8
REMARK    4  A    between atoms: C_9  and  C_10
REMARK                            x       y       z     vdW  Elec       q    Type
REMARK                         _______ _______ _______ _____ _____    ______ ____
ROOT
ATOM      1  C   UNL     1      16.311   9.037   2.888  0.00  0.00    +0.000 A 
ATOM      2  C   UNL     1      15.755   9.688   1.787  0.00  0.00    +0.000 A 
ATOM      3  C   UNL     1      16.001   9.462   4.180  0.00  0.00    +0.000 A 
ATOM      4  C   UNL     1      14.578  11.191   3.270  0.00  0.00    +0.000 A 
ATOM      5  C   UNL     1      14.888  10.765   1.978  0.00  0.00    +0.000 A 
ATOM      6  C   UNL     1      15.135  10.539   4.371  0.00  0.00    +0.000 A 
ATOM      7  H   UNL     1      15.982   9.405   0.764  0.00  0.00    +0.000 HD
ATOM      8  H   UNL     1      16.424   8.966   5.050  0.00  0.00    +0.000 HD
ATOM      9  H   UNL     1      14.462  11.271   1.117  0.00  0.00    +0.000 HD
ATOM     10  H   UNL     1      14.937  10.818   5.400  0.00  0.00    +0.000 HD
ENDROOT
BRANCH   1  11
ATOM     11  C   UNL     1      17.214   7.915   2.690  0.00  0.00    +0.000 C 
ATOM     12  C   UNL     1      18.565   7.979   2.673  0.00  0.00    +0.000 C 
ATOM     13  H   UNL     1      16.742   6.948   2.533  0.00  0.00    +0.000 HD
ATOM     14  H   UNL     1      19.086   8.924   2.798  0.00  0.00    +0.000 HD
BRANCH  12  15
ATOM     15  C   UNL     1      19.456   6.799   2.456  0.00  0.00    +0.000 C 
ATOM     16  H   UNL     1      19.481   6.541   1.393  0.00  0.00    +0.000 HD
ATOM     17  H   UNL     1      20.475   7.038   2.777  0.00  0.00    +0.000 HD
ATOM     18  H   UNL     1      19.120   5.920   3.014  0.00  0.00    +0.000 HD
ENDBRANCH  12  15
ENDBRANCH   1  11
BRANCH   4  19
ATOM     19  O   UNL     1      13.734  12.241   3.455  0.00  0.00    +0.000 OA
BRANCH  19  20
ATOM     20  C   UNL     1      13.684  13.225   2.423  0.00  0.00    +0.000 C 
ATOM     21  H   UNL     1      14.450  13.047   1.661  0.00  0.00    +0.000 HD
ATOM     22  H   UNL     1      13.733  14.240   2.831  0.00  0.00    +0.000 HD
ATOM     23  H   UNL     1      12.712  13.125   1.929  0.00  0.00    +0.000 HD
ENDBRANCH  19  20
ENDBRANCH   4  19
TORSDOF 4
ENDMDL
