MODEL 1
REMARK VINA RESULT:    -5.761      0.000      0.000
REMARK INTER + INTRA:          -6.749
REMARK INTER:                  -6.606
REMARK INTRA:                  -0.144
REMARK UNBOUND:                -0.146
REMARK  Name = 444539
REMARK  3 active torsions:
REMARK  status: ('A' for Active; 'I' for Inactive)
REMARK    1  A    between atoms: O_1  and  C_11
REMARK    2  A    between atoms: C_3  and  C_6
REMARK    3  A    between atoms: C_10  and  C_11
REMARK                            x       y       z     vdW  Elec       q    Type
REMARK                         _______ _______ _______ _____ _____    ______ ____
ROOT
ATOM      1  C   UNL     1       8.651 -10.356  -0.702  0.00  0.00    +0.000 A 
ATOM      2  C   UNL     1       8.831  -8.991  -0.475  0.00  0.00    +0.000 A 
ATOM      3  C   UNL     1       9.601 -11.073  -1.427  0.00  0.00    +0.000 A 
ATOM      4  C   UNL     1       9.961  -8.345  -0.974  0.00  0.00    +0.000 A 
ATOM      5  C   UNL     1      10.732 -10.426  -1.926  0.00  0.00    +0.000 A 
ATOM      6  C   UNL     1      10.913  -9.062  -1.699  0.00  0.00    +0.000 A 
ATOM      7  H   UNL     1       8.109  -8.381   0.061  0.00  0.00    +0.000 HD
ATOM      8  H   UNL     1       9.478 -12.138  -1.613  0.00  0.00    +0.000 HD
ATOM      9  H   UNL     1      10.100  -7.281  -0.803  0.00  0.00    +0.000 HD
ATOM     10  H   UNL     1      11.473 -10.986  -2.491  0.00  0.00    +0.000 HD
ATOM     11  H   UNL     1      11.793  -8.558  -2.088  0.00  0.00    +0.000 HD
ENDROOT
BRANCH   1  12
ATOM     12  C   UNL     1       7.473 -11.031  -0.180  0.00  0.00    +0.000 C 
ATOM     13  C   UNL     1       7.448 -11.622   1.011  0.00  0.00    +0.000 C 
ATOM     14  H   UNL     1       6.599 -11.040  -0.828  0.00  0.00    +0.000 HD
ATOM     15  H   UNL     1       8.290 -11.674   1.689  0.00  0.00    +0.000 HD
BRANCH  13  17
ATOM     16  O   UNL     1       5.371 -12.808   0.713  0.00  0.00    +0.000 OA
ATOM     17  C   UNL     1       6.204 -12.295   1.439  0.00  0.00    +0.000 C 
BRANCH  17  18
ATOM     18  O   UNL     1       6.133 -12.253   2.791  0.00  0.00    +0.000 OA
ATOM     19  H   UNL     1       5.374 -12.772   3.134  0.00  0.00    +0.000 HD
ENDBRANCH  17  18
ENDBRANCH  13  17
ENDBRANCH   1  12
TORSDOF 3
ENDMDL
MODEL 2
REMARK VINA RESULT:    -5.733      8.422      9.599
REMARK INTER + INTRA:          -6.717
REMARK INTER:                  -6.550
REMARK INTRA:                  -0.167
REMARK UNBOUND:                -0.146
REMARK  Name = 444539
REMARK  3 active torsions:
REMARK  status: ('A' for Active; 'I' for Inactive)
REMARK    1  A    between atoms: O_1  and  C_11
REMARK    2  A    between atoms: C_3  and  C_6
REMARK    3  A    between atoms: C_10  and  C_11
REMARK                            x       y       z     vdW  Elec       q    Type
REMARK                         _______ _______ _______ _____ _____    ______ ____
ROOT
ATOM      1  C   UNL     1       5.577  -3.016  -1.186  0.00  0.00    +0.000 A 
ATOM      2  C   UNL     1       4.322  -2.547  -1.575  0.00  0.00    +0.000 A 
ATOM      3  C   UNL     1       5.769  -3.507   0.105  0.00  0.00    +0.000 A 
ATOM      4  C   UNL     1       3.260  -2.568  -0.671  0.00  0.00    +0.000 A 
ATOM      5  C   UNL     1       4.706  -3.528   1.008  0.00  0.00    +0.000 A 
ATOM      6  C   UNL     1       3.452  -3.059   0.621  0.00  0.00    +0.000 A 
ATOM      7  H   UNL     1       4.125  -2.131  -2.558  0.00  0.00    +0.000 HD
ATOM      8  H   UNL     1       6.740  -3.878   0.425  0.00  0.00    +0.000 HD
ATOM      9  H   UNL     1       2.283  -2.197  -0.970  0.00  0.00    +0.000 HD
ATOM     10  H   UNL     1       4.856  -3.911   2.014  0.00  0.00    +0.000 HD
ATOM     11  H   UNL     1       2.624  -3.074   1.325  0.00  0.00    +0.000 HD
ENDROOT
BRANCH   1  12
ATOM     12  C   UNL     1       6.685  -2.997  -2.129  0.00  0.00    +0.000 C 
ATOM     13  C   UNL     1       7.948  -2.823  -1.754  0.00  0.00    +0.000 C 
ATOM     14  H   UNL     1       6.424  -3.123  -3.177  0.00  0.00    +0.000 HD
ATOM     15  H   UNL     1       8.270  -2.663  -0.733  0.00  0.00    +0.000 HD
BRANCH  13  17
ATOM     16  O   UNL     1      10.192  -2.643  -2.616  0.00  0.00    +0.000 OA
ATOM     17  C   UNL     1       8.997  -2.803  -2.795  0.00  0.00    +0.000 C 
BRANCH  17  18
ATOM     18  O   UNL     1       8.414  -2.996  -4.001  0.00  0.00    +0.000 OA
ATOM     19  H   UNL     1       7.506  -2.627  -4.033  0.00  0.00    +0.000 HD
ENDBRANCH  17  18
ENDBRANCH  13  17
ENDBRANCH   1  12
TORSDOF 3
ENDMDL
MODEL 3
REMARK VINA RESULT:    -5.657      4.709      6.296
REMARK INTER + INTRA:          -6.629
REMARK INTER:                  -6.467
REMARK INTRA:                  -0.162
REMARK UNBOUND:                -0.146
REMARK  Name = 444539
REMARK  3 active torsions:
REMARK  status: ('A' for Active; 'I' for Inactive)
REMARK    1  A    between atoms: O_1  and  C_11
REMARK    2  A    between atoms: C_3  and  C_6
REMARK    3  A    between atoms: C_10  and  C_11
REMARK                            x       y       z     vdW  Elec       q    Type
REMARK                         _______ _______ _______ _____ _____    ______ ____
ROOT
ATOM      1  C   UNL     1      10.584  -9.730  -1.672  0.00  0.00    +0.000 A 
ATOM      2  C   UNL     1      10.021 -11.004  -1.752  0.00  0.00    +0.000 A 
ATOM      3  C   UNL     1       9.979  -8.749  -0.887  0.00  0.00    +0.000 A 
ATOM      4  C   UNL     1       8.853 -11.295  -1.048  0.00  0.00    +0.000 A 
ATOM      5  C   UNL     1       8.811  -9.041  -0.184  0.00  0.00    +0.000 A 
ATOM      6  C   UNL     1       8.248 -10.314  -0.263  0.00  0.00    +0.000 A 
ATOM      7  H   UNL     1      10.437 -11.796  -2.367  0.00  0.00    +0.000 HD
ATOM      8  H   UNL     1      10.404  -7.750  -0.812  0.00  0.00    +0.000 HD
ATOM      9  H   UNL     1       8.411 -12.286  -1.114  0.00  0.00    +0.000 HD
ATOM     10  H   UNL     1       8.339  -8.276   0.428  0.00  0.00    +0.000 HD
ATOM     11  H   UNL     1       7.337 -10.541   0.284  0.00  0.00    +0.000 HD
ENDROOT
BRANCH   1  12
ATOM     12  C   UNL     1      11.804  -9.426  -2.404  0.00  0.00    +0.000 C 
ATOM     13  C   UNL     1      12.163 -10.073  -3.507  0.00  0.00    +0.000 C 
ATOM     14  H   UNL     1      12.426  -8.635  -1.990  0.00  0.00    +0.000 HD
ATOM     15  H   UNL     1      11.605 -10.888  -3.952  0.00  0.00    +0.000 HD
BRANCH  13  17
ATOM     16  O   UNL     1      13.594  -9.474  -5.353  0.00  0.00    +0.000 OA
ATOM     17  C   UNL     1      13.432  -9.696  -4.166  0.00  0.00    +0.000 C 
BRANCH  17  18
ATOM     18  O   UNL     1      14.405  -9.635  -3.227  0.00  0.00    +0.000 OA
ATOM     19  H   UNL     1      14.247  -8.913  -2.582  0.00  0.00    +0.000 HD
ENDBRANCH  17  18
ENDBRANCH  13  17
ENDBRANCH   1  12
TORSDOF 3
ENDMDL
MODEL 4
REMARK VINA RESULT:    -5.570     22.928     23.785
REMARK INTER + INTRA:          -6.530
REMARK INTER:                  -6.377
REMARK INTRA:                  -0.153
REMARK UNBOUND:                -0.146
REMARK  Name = 444539
REMARK  3 active torsions:
REMARK  status: ('A' for Active; 'I' for Inactive)
REMARK    1  A    between atoms: O_1  and  C_11
REMARK    2  A    between atoms: C_3  and  C_6
REMARK    3  A    between atoms: C_10  and  C_11
REMARK                            x       y       z     vdW  Elec       q    Type
REMARK                         _______ _______ _______ _____ _____    ______ ____
ROOT
ATOM      1  C   UNL     1       6.769  12.708   0.132  0.00  0.00    +0.000 A 
ATOM      2  C   UNL     1       7.120  13.675   1.075  0.00  0.00    +0.000 A 
ATOM      3  C   UNL     1       5.972  11.627   0.505  0.00  0.00    +0.000 A 
ATOM      4  C   UNL     1       6.673  13.557   2.391  0.00  0.00    +0.000 A 
ATOM      5  C   UNL     1       5.525  11.510   1.821  0.00  0.00    +0.000 A 
ATOM      6  C   UNL     1       5.875  12.476   2.765  0.00  0.00    +0.000 A 
ATOM      7  H   UNL     1       7.758  14.521   0.844  0.00  0.00    +0.000 HD
ATOM      8  H   UNL     1       5.688  10.864  -0.217  0.00  0.00    +0.000 HD
ATOM      9  H   UNL     1       6.950  14.306   3.129  0.00  0.00    +0.000 HD
ATOM     10  H   UNL     1       4.904  10.668   2.111  0.00  0.00    +0.000 HD
ATOM     11  H   UNL     1       5.529  12.385   3.790  0.00  0.00    +0.000 HD
ENDROOT
BRANCH   1  12
ATOM     12  C   UNL     1       7.232  12.830  -1.242  0.00  0.00    +0.000 C 
ATOM     13  C   UNL     1       8.219  12.091  -1.739  0.00  0.00    +0.000 C 
ATOM     14  H   UNL     1       6.730  13.578  -1.852  0.00  0.00    +0.000 HD
ATOM     15  H   UNL     1       8.777  11.353  -1.178  0.00  0.00    +0.000 HD
BRANCH  13  17
ATOM     16  O   UNL     1       9.751  12.215  -3.596  0.00  0.00    +0.000 OA
ATOM     17  C   UNL     1       8.623  12.307  -3.144  0.00  0.00    +0.000 C 
BRANCH  17  18
ATOM     18  O   UNL     1       7.524  12.628  -3.867  0.00  0.00    +0.000 OA
ATOM     19  H   UNL     1       7.119  11.840  -4.287  0.00  0.00    +0.000 HD
ENDBRANCH  17  18
ENDBRANCH  13  17
ENDBRANCH   1  12
TORSDOF 3
ENDMDL
MODEL 5
REMARK VINA RESULT:    -5.363      8.790      9.681
REMARK INTER + INTRA:          -6.293
REMARK INTER:                  -6.130
REMARK INTRA:                  -0.163
REMARK UNBOUND:                -0.146
REMARK  Name = 444539
REMARK  3 active torsions:
REMARK  status: ('A' for Active; 'I' for Inactive)
REMARK    1  A    between atoms: O_1  and  C_11
REMARK    2  A    between atoms: C_3  and  C_6
REMARK    3  A    between atoms: C_10  and  C_11
REMARK                            x       y       z     vdW  Elec       q    Type
REMARK                         _______ _______ _______ _____ _____    ______ ____
ROOT
ATOM      1  C   UNL     1       5.949  -2.801   0.162  0.00  0.00    +0.000 A 
ATOM      2  C   UNL     1       5.545  -2.403  -1.113  0.00  0.00    +0.000 A 
ATOM      3  C   UNL     1       5.016  -3.311   1.063  0.00  0.00    +0.000 A 
ATOM      4  C   UNL     1       4.205  -2.515  -1.484  0.00  0.00    +0.000 A 
ATOM      5  C   UNL     1       3.677  -3.423   0.690  0.00  0.00    +0.000 A 
ATOM      6  C   UNL     1       3.271  -3.026  -0.583  0.00  0.00    +0.000 A 
ATOM      7  H   UNL     1       6.225  -1.976  -1.843  0.00  0.00    +0.000 HD
ATOM      8  H   UNL     1       5.314  -3.627   2.060  0.00  0.00    +0.000 HD
ATOM      9  H   UNL     1       3.887  -2.200  -2.474  0.00  0.00    +0.000 HD
ATOM     10  H   UNL     1       2.949  -3.820   1.393  0.00  0.00    +0.000 HD
ATOM     11  H   UNL     1       2.227  -3.111  -0.873  0.00  0.00    +0.000 HD
ENDROOT
BRANCH   1  12
ATOM     12  C   UNL     1       7.347  -2.687   0.550  0.00  0.00    +0.000 C 
ATOM     13  C   UNL     1       8.227  -1.959  -0.130  0.00  0.00    +0.000 C 
ATOM     14  H   UNL     1       7.646  -3.246   1.433  0.00  0.00    +0.000 HD
ATOM     15  H   UNL     1       8.001  -1.404  -1.032  0.00  0.00    +0.000 HD
BRANCH  13  17
ATOM     16  O   UNL     1      10.627  -2.040  -0.348  0.00  0.00    +0.000 OA
ATOM     17  C   UNL     1       9.628  -1.924   0.341  0.00  0.00    +0.000 C 
BRANCH  17  18
ATOM     18  O   UNL     1       9.630  -1.737   1.682  0.00  0.00    +0.000 OA
ATOM     19  H   UNL     1       8.830  -1.259   1.986  0.00  0.00    +0.000 HD
ENDBRANCH  17  18
ENDBRANCH  13  17
ENDBRANCH   1  12
TORSDOF 3
ENDMDL
MODEL 6
REMARK VINA RESULT:    -5.324      7.262      8.100
REMARK INTER + INTRA:          -6.248
REMARK INTER:                  -6.095
REMARK INTRA:                  -0.153
REMARK UNBOUND:                -0.146
REMARK  Name = 444539
REMARK  3 active torsions:
REMARK  status: ('A' for Active; 'I' for Inactive)
REMARK    1  A    between atoms: O_1  and  C_11
REMARK    2  A    between atoms: C_3  and  C_6
REMARK    3  A    between atoms: C_10  and  C_11
REMARK                            x       y       z     vdW  Elec       q    Type
REMARK                         _______ _______ _______ _____ _____    ______ ____
ROOT
ATOM      1  C   UNL     1       8.328  -2.678  -0.537  0.00  0.00    +0.000 A 
ATOM      2  C   UNL     1       8.823  -3.736  -1.300  0.00  0.00    +0.000 A 
ATOM      3  C   UNL     1       8.801  -1.384  -0.750  0.00  0.00    +0.000 A 
ATOM      4  C   UNL     1       9.792  -3.499  -2.274  0.00  0.00    +0.000 A 
ATOM      5  C   UNL     1       9.770  -1.148  -1.724  0.00  0.00    +0.000 A 
ATOM      6  C   UNL     1      10.266  -2.205  -2.487  0.00  0.00    +0.000 A 
ATOM      7  H   UNL     1       8.507  -4.766  -1.158  0.00  0.00    +0.000 HD
ATOM      8  H   UNL     1       8.426  -0.547  -0.165  0.00  0.00    +0.000 HD
ATOM      9  H   UNL     1      10.183  -4.323  -2.865  0.00  0.00    +0.000 HD
ATOM     10  H   UNL     1      10.139  -0.139  -1.890  0.00  0.00    +0.000 HD
ATOM     11  H   UNL     1      11.022  -2.021  -3.245  0.00  0.00    +0.000 HD
ENDROOT
BRANCH   1  12
ATOM     12  C   UNL     1       7.314  -2.924   0.477  0.00  0.00    +0.000 C 
ATOM     13  C   UNL     1       6.069  -3.281   0.182  0.00  0.00    +0.000 C 
ATOM     14  H   UNL     1       7.628  -2.788   1.510  0.00  0.00    +0.000 HD
ATOM     15  H   UNL     1       5.686  -3.403  -0.824  0.00  0.00    +0.000 HD
BRANCH  13  17
ATOM     16  O   UNL     1       3.939  -3.161   1.305  0.00  0.00    +0.000 OA
ATOM     17  C   UNL     1       5.112  -3.490   1.289  0.00  0.00    +0.000 C 
BRANCH  17  18
ATOM     18  O   UNL     1       5.754  -4.118   2.302  0.00  0.00    +0.000 OA
ATOM     19  H   UNL     1       5.437  -5.039   2.422  0.00  0.00    +0.000 HD
ENDBRANCH  17  18
ENDBRANCH  13  17
ENDBRANCH   1  12
TORSDOF 3
ENDMDL
MODEL 7
REMARK VINA RESULT:    -5.279     20.875     21.957
REMARK INTER + INTRA:          -6.197
REMARK INTER:                  -6.039
REMARK INTRA:                  -0.157
REMARK UNBOUND:                -0.146
REMARK  Name = 444539
REMARK  3 active torsions:
REMARK  status: ('A' for Active; 'I' for Inactive)
REMARK    1  A    between atoms: O_1  and  C_11
REMARK    2  A    between atoms: C_3  and  C_6
REMARK    3  A    between atoms: C_10  and  C_11
REMARK                            x       y       z     vdW  Elec       q    Type
REMARK                         _______ _______ _______ _____ _____    ______ ____
ROOT
ATOM      1  C   UNL     1      16.393   8.997   2.959  0.00  0.00    +0.000 A 
ATOM      2  C   UNL     1      16.032   9.426   4.236  0.00  0.00    +0.000 A 
ATOM      3  C   UNL     1      15.855   9.622   1.835  0.00  0.00    +0.000 A 
ATOM      4  C   UNL     1      15.132  10.480   4.388  0.00  0.00    +0.000 A 
ATOM      5  C   UNL     1      14.955  10.676   1.987  0.00  0.00    +0.000 A 
ATOM      6  C   UNL     1      14.593  11.106   3.264  0.00  0.00    +0.000 A 
ATOM      7  H   UNL     1      16.401   8.957   5.143  0.00  0.00    +0.000 HD
ATOM      8  H   UNL     1      16.126   9.301   0.831  0.00  0.00    +0.000 HD
ATOM      9  H   UNL     1      14.845  10.812   5.382  0.00  0.00    +0.000 HD
ATOM     10  H   UNL     1      14.536  11.164   1.111  0.00  0.00    +0.000 HD
ATOM     11  H   UNL     1      13.891  11.927   3.383  0.00  0.00    +0.000 HD
ENDROOT
BRANCH   1  12
ATOM     12  C   UNL     1      17.334   7.899   2.799  0.00  0.00    +0.000 C 
ATOM     13  C   UNL     1      18.598   8.079   2.430  0.00  0.00    +0.000 C 
ATOM     14  H   UNL     1      16.943   6.901   2.989  0.00  0.00    +0.000 HD
ATOM     15  H   UNL     1      19.039   9.040   2.197  0.00  0.00    +0.000 HD
BRANCH  13  17
ATOM     16  O   UNL     1      20.572   6.864   1.769  0.00  0.00    +0.000 OA
ATOM     17  C   UNL     1      19.467   6.893   2.281  0.00  0.00    +0.000 C 
BRANCH  17  18
ATOM     18  O   UNL     1      18.833   5.822   2.813  0.00  0.00    +0.000 OA
ATOM     19  H   UNL     1      19.441   5.259   3.338  0.00  0.00    +0.000 HD
ENDBRANCH  17  18
ENDBRANCH  13  17
ENDBRANCH   1  12
TORSDOF 3
ENDMDL
MODEL 8
REMARK VINA RESULT:    -5.116     25.281     26.209
REMARK INTER + INTRA:          -6.010
REMARK INTER:                  -5.853
REMARK INTRA:                  -0.157
REMARK UNBOUND:                -0.146
REMARK  Name = 444539
REMARK  3 active torsions:
REMARK  status: ('A' for Active; 'I' for Inactive)
REMARK    1  A    between atoms: O_1  and  C_11
REMARK    2  A    between atoms: C_3  and  C_6
REMARK    3  A    between atoms: C_10  and  C_11
REMARK                            x       y       z     vdW  Elec       q    Type
REMARK                         _______ _______ _______ _____ _____    ______ ____
ROOT
ATOM      1  C   UNL     1       0.551  10.999  11.527  0.00  0.00    +0.000 A 
ATOM      2  C   UNL     1       0.700  12.366  11.291  0.00  0.00    +0.000 A 
ATOM      3  C   UNL     1       1.677  10.185  11.644  0.00  0.00    +0.000 A 
ATOM      4  C   UNL     1       1.975  12.917  11.171  0.00  0.00    +0.000 A 
ATOM      5  C   UNL     1       2.952  10.737  11.524  0.00  0.00    +0.000 A 
ATOM      6  C   UNL     1       3.102  12.103  11.288  0.00  0.00    +0.000 A 
ATOM      7  H   UNL     1      -0.142  13.039  11.166  0.00  0.00    +0.000 HD
ATOM      8  H   UNL     1       1.580   9.117  11.829  0.00  0.00    +0.000 HD
ATOM      9  H   UNL     1       2.093  13.981  10.981  0.00  0.00    +0.000 HD
ATOM     10  H   UNL     1       3.830  10.102  11.615  0.00  0.00    +0.000 HD
ATOM     11  H   UNL     1       4.095  12.533  11.193  0.00  0.00    +0.000 HD
ENDROOT
BRANCH   1  12
ATOM     12  C   UNL     1      -0.779  10.423  11.655  0.00  0.00    +0.000 C 
ATOM     13  C   UNL     1      -1.890  11.117  11.430  0.00  0.00    +0.000 C 
ATOM     14  H   UNL     1      -0.822   9.380  11.961  0.00  0.00    +0.000 HD
ATOM     15  H   UNL     1      -1.916  12.163  11.153  0.00  0.00    +0.000 HD
BRANCH  13  17
ATOM     16  O   UNL     1      -3.499   9.681  12.507  0.00  0.00    +0.000 OA
ATOM     17  C   UNL     1      -3.193  10.440  11.605  0.00  0.00    +0.000 C 
BRANCH  17  18
ATOM     18  O   UNL     1      -4.009  10.803  10.587  0.00  0.00    +0.000 OA
ATOM     19  H   UNL     1      -4.943  10.880  10.876  0.00  0.00    +0.000 HD
ENDBRANCH  17  18
ENDBRANCH  13  17
ENDBRANCH   1  12
TORSDOF 3
ENDMDL
MODEL 9
REMARK VINA RESULT:    -4.827     16.090     19.425
REMARK INTER + INTRA:          -5.679
REMARK INTER:                  -5.529
REMARK INTRA:                  -0.150
REMARK UNBOUND:                -0.146
REMARK  Name = 444539
REMARK  3 active torsions:
REMARK  status: ('A' for Active; 'I' for Inactive)
REMARK    1  A    between atoms: O_1  and  C_11
REMARK    2  A    between atoms: C_3  and  C_6
REMARK    3  A    between atoms: C_10  and  C_11
REMARK                            x       y       z     vdW  Elec       q    Type
REMARK                         _______ _______ _______ _____ _____    ______ ____
ROOT
ATOM      1  C   UNL     1      -9.105 -15.240   7.141  0.00  0.00    +0.000 A 
ATOM      2  C   UNL     1     -10.336 -14.601   6.990  0.00  0.00    +0.000 A 
ATOM      3  C   UNL     1      -9.002 -16.373   7.947  0.00  0.00    +0.000 A 
ATOM      4  C   UNL     1     -11.463 -15.095   7.647  0.00  0.00    +0.000 A 
ATOM      5  C   UNL     1     -10.129 -16.866   8.604  0.00  0.00    +0.000 A 
ATOM      6  C   UNL     1     -11.360 -16.228   8.454  0.00  0.00    +0.000 A 
ATOM      7  H   UNL     1     -10.466 -13.702   6.395  0.00  0.00    +0.000 HD
ATOM      8  H   UNL     1      -8.051 -16.884   8.076  0.00  0.00    +0.000 HD
ATOM      9  H   UNL     1     -12.421 -14.595   7.536  0.00  0.00    +0.000 HD
ATOM     10  H   UNL     1     -10.048 -17.749   9.233  0.00  0.00    +0.000 HD
ATOM     11  H   UNL     1     -12.237 -16.611   8.967  0.00  0.00    +0.000 HD
ENDROOT
BRANCH   1  12
ATOM     12  C   UNL     1      -7.930 -14.728   6.453  0.00  0.00    +0.000 C 
ATOM     13  C   UNL     1      -7.061 -13.902   7.028  0.00  0.00    +0.000 C 
ATOM     14  H   UNL     1      -7.799 -15.050   5.423  0.00  0.00    +0.000 HD
ATOM     15  H   UNL     1      -7.150 -13.521   8.037  0.00  0.00    +0.000 HD
BRANCH  13  17
ATOM     16  O   UNL     1      -4.741 -13.421   6.585  0.00  0.00    +0.000 OA
ATOM     17  C   UNL     1      -5.908 -13.426   6.234  0.00  0.00    +0.000 C 
BRANCH  17  18
ATOM     18  O   UNL     1      -6.358 -12.991   5.034  0.00  0.00    +0.000 OA
ATOM     19  H   UNL     1      -7.234 -12.554   5.108  0.00  0.00    +0.000 HD
ENDBRANCH  17  18
ENDBRANCH  13  17
ENDBRANCH   1  12
TORSDOF 3
ENDMDL
MODEL 10
REMARK VINA RESULT:    -4.648     13.620     16.098
REMARK INTER + INTRA:          -5.473
REMARK INTER:                  -5.327
REMARK INTRA:                  -0.146
REMARK UNBOUND:                -0.146
REMARK  Name = 444539
REMARK  3 active torsions:
REMARK  status: ('A' for Active; 'I' for Inactive)
REMARK    1  A    between atoms: O_1  and  C_11
REMARK    2  A    between atoms: C_3  and  C_6
REMARK    3  A    between atoms: C_10  and  C_11
REMARK                            x       y       z     vdW  Elec       q    Type
REMARK                         _______ _______ _______ _____ _____    ______ ____
ROOT
ATOM      1  C   UNL     1      -6.569 -13.680   4.351  0.00  0.00    +0.000 A 
ATOM      2  C   UNL     1      -7.906 -14.056   4.480  0.00  0.00    +0.000 A 
ATOM      3  C   UNL     1      -5.808 -13.405   5.487  0.00  0.00    +0.000 A 
ATOM      4  C   UNL     1      -8.482 -14.155   5.747  0.00  0.00    +0.000 A 
ATOM      5  C   UNL     1      -6.385 -13.504   6.753  0.00  0.00    +0.000 A 
ATOM      6  C   UNL     1      -7.722 -13.879   6.883  0.00  0.00    +0.000 A 
ATOM      7  H   UNL     1      -8.549 -14.257   3.629  0.00  0.00    +0.000 HD
ATOM      8  H   UNL     1      -4.764 -13.111   5.405  0.00  0.00    +0.000 HD
ATOM      9  H   UNL     1      -9.525 -14.441   5.849  0.00  0.00    +0.000 HD
ATOM     10  H   UNL     1      -5.793 -13.289   7.638  0.00  0.00    +0.000 HD
ATOM     11  H   UNL     1      -8.172 -13.955   7.869  0.00  0.00    +0.000 HD
ENDROOT
BRANCH   1  12
ATOM     12  C   UNL     1      -5.966 -13.580   3.031  0.00  0.00    +0.000 C 
ATOM     13  C   UNL     1      -5.521 -12.433   2.526  0.00  0.00    +0.000 C 
ATOM     14  H   UNL     1      -5.905 -14.504   2.460  0.00  0.00    +0.000 HD
ATOM     15  H   UNL     1      -5.580 -11.476   3.029  0.00  0.00    +0.000 HD
BRANCH  13  17
ATOM     16  O   UNL     1      -4.429 -13.388   0.601  0.00  0.00    +0.000 OA
ATOM     17  C   UNL     1      -4.940 -12.438   1.167  0.00  0.00    +0.000 C 
BRANCH  17  18
ATOM     18  O   UNL     1      -5.068 -11.198   0.637  0.00  0.00    +0.000 OA
ATOM     19  H   UNL     1      -5.552 -11.212  -0.216  0.00  0.00    +0.000 HD
ENDBRANCH  17  18
ENDBRANCH  13  17
ENDBRANCH   1  12
TORSDOF 3
ENDMDL
