MODEL 1
REMARK VINA RESULT:    -4.728      0.000      0.000
REMARK INTER + INTRA:          -5.636
REMARK INTER:                  -5.564
REMARK INTRA:                  -0.072
REMARK UNBOUND:                -0.079
REMARK  Name = 1183
REMARK  4 active torsions:
REMARK  status: ('A' for Active; 'I' for Inactive)
REMARK    1  A    between atoms: O_1  and  C_4
REMARK    2  A    between atoms: O_1  and  C_11
REMARK    3  A    between atoms: O_2  and  C_7
REMARK    4  A    between atoms: C_5  and  C_10
REMARK                            x       y       z     vdW  Elec       q    Type
REMARK                         _______ _______ _______ _____ _____    ______ ____
ROOT
ATOM      1  C   UNL     1     -17.640  -1.582   8.729  0.00  0.00    +0.000 A 
ATOM      2  C   UNL     1     -19.845  -2.364   9.335  0.00  0.00    +0.000 A 
ATOM      3  C   UNL     1     -18.502  -2.169   9.656  0.00  0.00    +0.000 A 
ATOM      4  C   UNL     1     -18.122  -1.190   7.481  0.00  0.00    +0.000 A 
ATOM      5  C   UNL     1     -20.327  -1.971   8.086  0.00  0.00    +0.000 A 
ATOM      6  C   UNL     1     -19.466  -1.385   7.158  0.00  0.00    +0.000 A 
ATOM      7  H   UNL     1     -18.181  -2.493  10.642  0.00  0.00    +0.000 HD
ATOM      8  H   UNL     1     -21.370  -2.114   7.813  0.00  0.00    +0.000 HD
ATOM      9  H   UNL     1     -19.854  -1.084   6.190  0.00  0.00    +0.000 HD
ENDROOT
BRANCH   2  11
ATOM     10  O   UNL     1     -21.878  -3.366  10.013  0.00  0.00    +0.000 OA
ATOM     11  C   UNL     1     -20.743  -2.975  10.301  0.00  0.00    +0.000 C 
ATOM     12  H   UNL     1     -20.365  -3.083  11.332  0.00  0.00    +0.000 HD
ENDBRANCH   2  11
BRANCH   4  13
ATOM     13  O   UNL     1     -17.291  -0.616   6.567  0.00  0.00    +0.000 OA
ATOM     14  H   UNL     1     -17.576  -0.874   5.673  0.00  0.00    +0.000 HD
ENDBRANCH   4  13
BRANCH   1  15
ATOM     15  O   UNL     1     -16.330  -1.397   9.055  0.00  0.00    +0.000 OA
BRANCH  15  16
ATOM     16  C   UNL     1     -15.934  -1.760  10.377  0.00  0.00    +0.000 C 
ATOM     17  H   UNL     1     -16.798  -1.980  11.012  0.00  0.00    +0.000 HD
ATOM     18  H   UNL     1     -15.268  -1.011  10.819  0.00  0.00    +0.000 HD
ATOM     19  H   UNL     1     -15.357  -2.688  10.295  0.00  0.00    +0.000 HD
ENDBRANCH  15  16
ENDBRANCH   1  15
TORSDOF 4
ENDMDL
MODEL 2
REMARK VINA RESULT:    -4.596     24.942     26.297
REMARK INTER + INTRA:          -5.480
REMARK INTER:                  -5.397
REMARK INTRA:                  -0.083
REMARK UNBOUND:                -0.079
REMARK  Name = 1183
REMARK  4 active torsions:
REMARK  status: ('A' for Active; 'I' for Inactive)
REMARK    1  A    between atoms: O_1  and  C_4
REMARK    2  A    between atoms: O_1  and  C_11
REMARK    3  A    between atoms: O_2  and  C_7
REMARK    4  A    between atoms: C_5  and  C_10
REMARK                            x       y       z     vdW  Elec       q    Type
REMARK                         _______ _______ _______ _____ _____    ______ ____
ROOT
ATOM      1  C   UNL     1       4.641 -12.672   0.717  0.00  0.00    +0.000 A 
ATOM      2  C   UNL     1       3.282 -13.148   2.657  0.00  0.00    +0.000 A 
ATOM      3  C   UNL     1       4.369 -13.455   1.839  0.00  0.00    +0.000 A 
ATOM      4  C   UNL     1       3.826 -11.582   0.413  0.00  0.00    +0.000 A 
ATOM      5  C   UNL     1       2.466 -12.057   2.352  0.00  0.00    +0.000 A 
ATOM      6  C   UNL     1       2.739 -11.274   1.231  0.00  0.00    +0.000 A 
ATOM      7  H   UNL     1       4.969 -14.314   2.123  0.00  0.00    +0.000 HD
ATOM      8  H   UNL     1       1.614 -11.799   2.975  0.00  0.00    +0.000 HD
ATOM      9  H   UNL     1       2.096 -10.428   1.005  0.00  0.00    +0.000 HD
ENDROOT
BRANCH   2  11
ATOM     10  O   UNL     1       3.302 -15.156   3.907  0.00  0.00    +0.000 OA
ATOM     11  C   UNL     1       2.997 -13.963   3.826  0.00  0.00    +0.000 C 
ATOM     12  H   UNL     1       2.483 -13.465   4.666  0.00  0.00    +0.000 HD
ENDBRANCH   2  11
BRANCH   4  13
ATOM     13  O   UNL     1       4.082 -10.810  -0.680  0.00  0.00    +0.000 OA
ATOM     14  H   UNL     1       4.033  -9.873  -0.424  0.00  0.00    +0.000 HD
ENDBRANCH   4  13
BRANCH   1  15
ATOM     15  O   UNL     1       5.707 -12.983  -0.074  0.00  0.00    +0.000 OA
BRANCH  15  16
ATOM     16  C   UNL     1       6.999 -12.616   0.406  0.00  0.00    +0.000 C 
ATOM     17  H   UNL     1       7.294 -13.217   1.271  0.00  0.00    +0.000 HD
ATOM     18  H   UNL     1       7.067 -11.540   0.600  0.00  0.00    +0.000 HD
ATOM     19  H   UNL     1       7.713 -12.839  -0.394  0.00  0.00    +0.000 HD
ENDBRANCH  15  16
ENDBRANCH   1  15
TORSDOF 4
ENDMDL
MODEL 3
REMARK VINA RESULT:    -4.571     16.329     18.349
REMARK INTER + INTRA:          -5.452
REMARK INTER:                  -5.386
REMARK INTRA:                  -0.066
REMARK UNBOUND:                -0.079
REMARK  Name = 1183
REMARK  4 active torsions:
REMARK  status: ('A' for Active; 'I' for Inactive)
REMARK    1  A    between atoms: O_1  and  C_4
REMARK    2  A    between atoms: O_1  and  C_11
REMARK    3  A    between atoms: O_2  and  C_7
REMARK    4  A    between atoms: C_5  and  C_10
REMARK                            x       y       z     vdW  Elec       q    Type
REMARK                         _______ _______ _______ _____ _____    ______ ____
ROOT
ATOM      1  C   UNL     1      -9.005   7.942  19.297  0.00  0.00    +0.000 A 
ATOM      2  C   UNL     1      -8.546  10.293  19.625  0.00  0.00    +0.000 A 
ATOM      3  C   UNL     1      -8.533   8.982  20.101  0.00  0.00    +0.000 A 
ATOM      4  C   UNL     1      -9.488   8.215  18.018  0.00  0.00    +0.000 A 
ATOM      5  C   UNL     1      -9.030  10.565  18.345  0.00  0.00    +0.000 A 
ATOM      6  C   UNL     1      -9.501   9.527  17.541  0.00  0.00    +0.000 A 
ATOM      7  H   UNL     1      -8.146   8.827  21.103  0.00  0.00    +0.000 HD
ATOM      8  H   UNL     1      -9.050  11.579  17.953  0.00  0.00    +0.000 HD
ATOM      9  H   UNL     1      -9.875   9.753  16.547  0.00  0.00    +0.000 HD
ENDROOT
BRANCH   2  11
ATOM     10  O   UNL     1      -8.277  11.444  21.674  0.00  0.00    +0.000 OA
ATOM     11  C   UNL     1      -8.056  11.375  20.462  0.00  0.00    +0.000 C 
ATOM     12  H   UNL     1      -7.460  12.158  19.963  0.00  0.00    +0.000 HD
ENDBRANCH   2  11
BRANCH   4  13
ATOM     13  O   UNL     1      -9.951   7.210  17.224  0.00  0.00    +0.000 OA
ATOM     14  H   UNL     1     -10.869   7.405  16.968  0.00  0.00    +0.000 HD
ENDBRANCH   4  13
BRANCH   1  15
ATOM     15  O   UNL     1      -8.987   6.666  19.774  0.00  0.00    +0.000 OA
BRANCH  15  16
ATOM     16  C   UNL     1      -8.701   6.496  21.161  0.00  0.00    +0.000 C 
ATOM     17  H   UNL     1      -9.036   5.520  21.525  0.00  0.00    +0.000 HD
ATOM     18  H   UNL     1      -9.096   7.325  21.759  0.00  0.00    +0.000 HD
ATOM     19  H   UNL     1      -7.611   6.518  21.269  0.00  0.00    +0.000 HD
ENDBRANCH  15  16
ENDBRANCH   1  15
TORSDOF 4
ENDMDL
MODEL 4
REMARK VINA RESULT:    -4.422      2.252      3.195
REMARK INTER + INTRA:          -5.277
REMARK INTER:                  -5.205
REMARK INTRA:                  -0.072
REMARK UNBOUND:                -0.079
REMARK  Name = 1183
REMARK  4 active torsions:
REMARK  status: ('A' for Active; 'I' for Inactive)
REMARK    1  A    between atoms: O_1  and  C_4
REMARK    2  A    between atoms: O_1  and  C_11
REMARK    3  A    between atoms: O_2  and  C_7
REMARK    4  A    between atoms: C_5  and  C_10
REMARK                            x       y       z     vdW  Elec       q    Type
REMARK                         _______ _______ _______ _____ _____    ______ ____
ROOT
ATOM      1  C   UNL     1     -19.116  -1.593   8.312  0.00  0.00    +0.000 A 
ATOM      2  C   UNL     1     -20.091  -2.244   6.199  0.00  0.00    +0.000 A 
ATOM      3  C   UNL     1     -20.198  -2.082   7.580  0.00  0.00    +0.000 A 
ATOM      4  C   UNL     1     -17.926  -1.266   7.662  0.00  0.00    +0.000 A 
ATOM      5  C   UNL     1     -18.901  -1.917   5.549  0.00  0.00    +0.000 A 
ATOM      6  C   UNL     1     -17.818  -1.428   6.280  0.00  0.00    +0.000 A 
ATOM      7  H   UNL     1     -21.147  -2.352   8.033  0.00  0.00    +0.000 HD
ATOM      8  H   UNL     1     -18.794  -2.035   4.473  0.00  0.00    +0.000 HD
ATOM      9  H   UNL     1     -16.897  -1.177   5.762  0.00  0.00    +0.000 HD
ENDROOT
BRANCH   2  11
ATOM     10  O   UNL     1     -21.160  -3.777   4.748  0.00  0.00    +0.000 OA
ATOM     11  C   UNL     1     -21.219  -2.754   5.436  0.00  0.00    +0.000 C 
ATOM     12  H   UNL     1     -22.159  -2.178   5.494  0.00  0.00    +0.000 HD
ENDBRANCH   2  11
BRANCH   4  13
ATOM     13  O   UNL     1     -16.862  -0.788   8.364  0.00  0.00    +0.000 OA
ATOM     14  H   UNL     1     -16.235  -0.372   7.747  0.00  0.00    +0.000 HD
ENDBRANCH   4  13
BRANCH   1  15
ATOM     15  O   UNL     1     -19.233  -1.440   9.660  0.00  0.00    +0.000 OA
BRANCH  15  16
ATOM     16  C   UNL     1     -19.895  -2.481  10.376  0.00  0.00    +0.000 C 
ATOM     17  H   UNL     1     -20.411  -3.171   9.701  0.00  0.00    +0.000 HD
ATOM     18  H   UNL     1     -20.557  -2.080  11.152  0.00  0.00    +0.000 HD
ATOM     19  H   UNL     1     -19.120  -3.060  10.889  0.00  0.00    +0.000 HD
ENDBRANCH  15  16
ENDBRANCH   1  15
TORSDOF 4
ENDMDL
MODEL 5
REMARK VINA RESULT:    -4.240     33.050     34.069
REMARK INTER + INTRA:          -5.062
REMARK INTER:                  -4.990
REMARK INTRA:                  -0.073
REMARK UNBOUND:                -0.079
REMARK  Name = 1183
REMARK  4 active torsions:
REMARK  status: ('A' for Active; 'I' for Inactive)
REMARK    1  A    between atoms: O_1  and  C_4
REMARK    2  A    between atoms: O_1  and  C_11
REMARK    3  A    between atoms: O_2  and  C_7
REMARK    4  A    between atoms: C_5  and  C_10
REMARK                            x       y       z     vdW  Elec       q    Type
REMARK                         _______ _______ _______ _____ _____    ______ ____
ROOT
ATOM      1  C   UNL     1       9.083 -10.173  -9.022  0.00  0.00    +0.000 A 
ATOM      2  C   UNL     1      10.549  -8.891  -7.591  0.00  0.00    +0.000 A 
ATOM      3  C   UNL     1      10.204 -10.100  -8.194  0.00  0.00    +0.000 A 
ATOM      4  C   UNL     1       8.307  -9.036  -9.246  0.00  0.00    +0.000 A 
ATOM      5  C   UNL     1       9.772  -7.753  -7.816  0.00  0.00    +0.000 A 
ATOM      6  C   UNL     1       8.651  -7.826  -8.643  0.00  0.00    +0.000 A 
ATOM      7  H   UNL     1      10.843 -10.952  -7.985  0.00  0.00    +0.000 HD
ATOM      8  H   UNL     1      10.022  -6.800  -7.356  0.00  0.00    +0.000 HD
ATOM      9  H   UNL     1       8.056  -6.933  -8.809  0.00  0.00    +0.000 HD
ENDROOT
BRANCH   2  11
ATOM     10  O   UNL     1      11.672  -8.396  -5.569  0.00  0.00    +0.000 OA
ATOM     11  C   UNL     1      11.717  -8.814  -6.729  0.00  0.00    +0.000 C 
ATOM     12  H   UNL     1      12.675  -9.153  -7.159  0.00  0.00    +0.000 HD
ENDBRANCH   2  11
BRANCH   4  13
ATOM     13  O   UNL     1       7.210  -9.094 -10.051  0.00  0.00    +0.000 OA
ATOM     14  H   UNL     1       6.492  -8.577  -9.647  0.00  0.00    +0.000 HD
ENDBRANCH   4  13
BRANCH   1  15
ATOM     15  O   UNL     1       8.757 -11.360  -9.605  0.00  0.00    +0.000 OA
BRANCH  15  16
ATOM     16  C   UNL     1       8.827 -12.526  -8.785  0.00  0.00    +0.000 C 
ATOM     17  H   UNL     1       8.918 -12.269  -7.725  0.00  0.00    +0.000 HD
ATOM     18  H   UNL     1       9.615 -13.209  -9.120  0.00  0.00    +0.000 HD
ATOM     19  H   UNL     1       7.876 -13.057  -8.902  0.00  0.00    +0.000 HD
ENDBRANCH  15  16
ENDBRANCH   1  15
TORSDOF 4
ENDMDL
MODEL 6
REMARK VINA RESULT:    -4.129     36.051     37.063
REMARK INTER + INTRA:          -4.932
REMARK INTER:                  -4.850
REMARK INTRA:                  -0.083
REMARK UNBOUND:                -0.079
REMARK  Name = 1183
REMARK  4 active torsions:
REMARK  status: ('A' for Active; 'I' for Inactive)
REMARK    1  A    between atoms: O_1  and  C_4
REMARK    2  A    between atoms: O_1  and  C_11
REMARK    3  A    between atoms: O_2  and  C_7
REMARK    4  A    between atoms: C_5  and  C_10
REMARK                            x       y       z     vdW  Elec       q    Type
REMARK                         _______ _______ _______ _____ _____    ______ ____
ROOT
ATOM      1  C   UNL     1      16.641   8.699   2.875  0.00  0.00    +0.000 A 
ATOM      2  C   UNL     1      15.464  10.117   4.438  0.00  0.00    +0.000 A 
ATOM      3  C   UNL     1      16.350   9.069   4.189  0.00  0.00    +0.000 A 
ATOM      4  C   UNL     1      16.047   9.378   1.812  0.00  0.00    +0.000 A 
ATOM      5  C   UNL     1      14.870  10.796   3.374  0.00  0.00    +0.000 A 
ATOM      6  C   UNL     1      15.161  10.426   2.061  0.00  0.00    +0.000 A 
ATOM      7  H   UNL     1      16.783   8.577   5.054  0.00  0.00    +0.000 HD
ATOM      8  H   UNL     1      14.176  11.616   3.544  0.00  0.00    +0.000 HD
ATOM      9  H   UNL     1      14.691  10.963   1.241  0.00  0.00    +0.000 HD
ENDROOT
BRANCH   2  11
ATOM     10  O   UNL     1      14.071  10.971   6.148  0.00  0.00    +0.000 OA
ATOM     11  C   UNL     1      15.160  10.503   5.806  0.00  0.00    +0.000 C 
ATOM     12  H   UNL     1      15.960  10.360   6.552  0.00  0.00    +0.000 HD
ENDBRANCH   2  11
BRANCH   4  13
ATOM     13  O   UNL     1      16.323   9.026   0.525  0.00  0.00    +0.000 OA
ATOM     14  H   UNL     1      17.266   8.800   0.454  0.00  0.00    +0.000 HD
ENDBRANCH   4  13
BRANCH   1  15
ATOM     15  O   UNL     1      17.508   7.674   2.645  0.00  0.00    +0.000 OA
BRANCH  15  16
ATOM     16  C   UNL     1      18.901   7.970   2.730  0.00  0.00    +0.000 C 
ATOM     17  H   UNL     1      19.113   8.687   3.530  0.00  0.00    +0.000 HD
ATOM     18  H   UNL     1      19.305   8.289   1.763  0.00  0.00    +0.000 HD
ATOM     19  H   UNL     1      19.412   7.038   2.995  0.00  0.00    +0.000 HD
ENDBRANCH  15  16
ENDBRANCH   1  15
TORSDOF 4
ENDMDL
MODEL 7
REMARK VINA RESULT:    -4.072     34.676     36.627
REMARK INTER + INTRA:          -4.865
REMARK INTER:                  -4.792
REMARK INTRA:                  -0.073
REMARK UNBOUND:                -0.079
REMARK  Name = 1183
REMARK  4 active torsions:
REMARK  status: ('A' for Active; 'I' for Inactive)
REMARK    1  A    between atoms: O_1  and  C_4
REMARK    2  A    between atoms: O_1  and  C_11
REMARK    3  A    between atoms: O_2  and  C_7
REMARK    4  A    between atoms: C_5  and  C_10
REMARK                            x       y       z     vdW  Elec       q    Type
REMARK                         _______ _______ _______ _____ _____    ______ ____
ROOT
ATOM      1  C   UNL     1      10.278  13.001  -5.431  0.00  0.00    +0.000 A 
ATOM      2  C   UNL     1      11.447  14.440  -6.981  0.00  0.00    +0.000 A 
ATOM      3  C   UNL     1      11.291  13.923  -5.695  0.00  0.00    +0.000 A 
ATOM      4  C   UNL     1       9.420  12.596  -6.454  0.00  0.00    +0.000 A 
ATOM      5  C   UNL     1      10.588  14.035  -8.004  0.00  0.00    +0.000 A 
ATOM      6  C   UNL     1       9.575  13.113  -7.740  0.00  0.00    +0.000 A 
ATOM      7  H   UNL     1      11.986  14.273  -4.939  0.00  0.00    +0.000 HD
ATOM      8  H   UNL     1      10.690  14.424  -9.014  0.00  0.00    +0.000 HD
ATOM      9  H   UNL     1       8.914  12.806  -8.545  0.00  0.00    +0.000 HD
ENDROOT
BRANCH   2  11
ATOM     10  O   UNL     1      13.411  15.190  -8.064  0.00  0.00    +0.000 OA
ATOM     11  C   UNL     1      12.502  15.401  -7.257  0.00  0.00    +0.000 C 
ATOM     12  H   UNL     1      12.463  16.354  -6.703  0.00  0.00    +0.000 HD
ENDBRANCH   2  11
BRANCH   4  13
ATOM     13  O   UNL     1       8.427  11.696  -6.209  0.00  0.00    +0.000 OA
ATOM     14  H   UNL     1       8.427  11.024  -6.912  0.00  0.00    +0.000 HD
ENDBRANCH   4  13
BRANCH   1  15
ATOM     15  O   UNL     1      10.137  12.503  -4.171  0.00  0.00    +0.000 OA
BRANCH  15  16
ATOM     16  C   UNL     1       9.389  13.288  -3.244  0.00  0.00    +0.000 C 
ATOM     17  H   UNL     1       8.980  12.676  -2.434  0.00  0.00    +0.000 HD
ATOM     18  H   UNL     1       8.620  13.885  -3.747  0.00  0.00    +0.000 HD
ATOM     19  H   UNL     1      10.088  13.995  -2.784  0.00  0.00    +0.000 HD
ENDBRANCH  15  16
ENDBRANCH   1  15
TORSDOF 4
ENDMDL
MODEL 8
REMARK VINA RESULT:    -4.061     34.356     35.916
REMARK INTER + INTRA:          -4.852
REMARK INTER:                  -4.773
REMARK INTRA:                  -0.079
REMARK UNBOUND:                -0.079
REMARK  Name = 1183
REMARK  4 active torsions:
REMARK  status: ('A' for Active; 'I' for Inactive)
REMARK    1  A    between atoms: O_1  and  C_4
REMARK    2  A    between atoms: O_1  and  C_11
REMARK    3  A    between atoms: O_2  and  C_7
REMARK    4  A    between atoms: C_5  and  C_10
REMARK                            x       y       z     vdW  Elec       q    Type
REMARK                         _______ _______ _______ _____ _____    ______ ____
ROOT
ATOM      1  C   UNL     1       9.362 -12.272  -8.774  0.00  0.00    +0.000 A 
ATOM      2  C   UNL     1      10.919 -12.517 -10.606  0.00  0.00    +0.000 A 
ATOM      3  C   UNL     1      10.587 -11.967  -9.368  0.00  0.00    +0.000 A 
ATOM      4  C   UNL     1       8.468 -13.127  -9.420  0.00  0.00    +0.000 A 
ATOM      5  C   UNL     1      10.024 -13.371 -11.251  0.00  0.00    +0.000 A 
ATOM      6  C   UNL     1       8.799 -13.676 -10.658  0.00  0.00    +0.000 A 
ATOM      7  H   UNL     1      11.320 -11.309  -8.911  0.00  0.00    +0.000 HD
ATOM      8  H   UNL     1      10.261 -13.811 -12.217  0.00  0.00    +0.000 HD
ATOM      9  H   UNL     1       8.112 -14.343 -11.172  0.00  0.00    +0.000 HD
ENDROOT
BRANCH   2  11
ATOM     10  O   UNL     1      12.293 -11.693 -12.346  0.00  0.00    +0.000 OA
ATOM     11  C   UNL     1      12.195 -12.199 -11.225  0.00  0.00    +0.000 C 
ATOM     12  H   UNL     1      13.102 -12.433 -10.642  0.00  0.00    +0.000 HD
ENDBRANCH   2  11
BRANCH   4  13
ATOM     13  O   UNL     1       7.269 -13.432  -8.851  0.00  0.00    +0.000 OA
ATOM     14  H   UNL     1       7.417 -14.036  -8.103  0.00  0.00    +0.000 HD
ENDBRANCH   4  13
BRANCH   1  15
ATOM     15  O   UNL     1       9.050 -11.729  -7.564  0.00  0.00    +0.000 OA
BRANCH  15  16
ATOM     16  C   UNL     1       9.935 -12.009  -6.481  0.00  0.00    +0.000 C 
ATOM     17  H   UNL     1       9.638 -11.480  -5.570  0.00  0.00    +0.000 HD
ATOM     18  H   UNL     1      10.979 -11.820  -6.753  0.00  0.00    +0.000 HD
ATOM     19  H   UNL     1       9.852 -13.080  -6.267  0.00  0.00    +0.000 HD
ENDBRANCH  15  16
ENDBRANCH   1  15
TORSDOF 4
ENDMDL
MODEL 9
REMARK VINA RESULT:    -4.061      1.602      3.946
REMARK INTER + INTRA:          -4.852
REMARK INTER:                  -4.769
REMARK INTRA:                  -0.083
REMARK UNBOUND:                -0.079
REMARK  Name = 1183
REMARK  4 active torsions:
REMARK  status: ('A' for Active; 'I' for Inactive)
REMARK    1  A    between atoms: O_1  and  C_4
REMARK    2  A    between atoms: O_1  and  C_11
REMARK    3  A    between atoms: O_2  and  C_7
REMARK    4  A    between atoms: C_5  and  C_10
REMARK                            x       y       z     vdW  Elec       q    Type
REMARK                         _______ _______ _______ _____ _____    ______ ____
ROOT
ATOM      1  C   UNL     1     -20.745  -1.827   8.961  0.00  0.00    +0.000 A 
ATOM      2  C   UNL     1     -18.336  -2.013   8.937  0.00  0.00    +0.000 A 
ATOM      3  C   UNL     1     -19.541  -2.023   9.639  0.00  0.00    +0.000 A 
ATOM      4  C   UNL     1     -20.744  -1.621   7.582  0.00  0.00    +0.000 A 
ATOM      5  C   UNL     1     -18.335  -1.807   7.557  0.00  0.00    +0.000 A 
ATOM      6  C   UNL     1     -19.538  -1.611   6.879  0.00  0.00    +0.000 A 
ATOM      7  H   UNL     1     -19.483  -2.187  10.710  0.00  0.00    +0.000 HD
ATOM      8  H   UNL     1     -17.408  -1.795   6.989  0.00  0.00    +0.000 HD
ATOM      9  H   UNL     1     -19.523  -1.451   5.805  0.00  0.00    +0.000 HD
ENDROOT
BRANCH   2  11
ATOM     10  O   UNL     1     -16.121  -1.448   9.546  0.00  0.00    +0.000 OA
ATOM     11  C   UNL     1     -17.081  -2.217   9.642  0.00  0.00    +0.000 C 
ATOM     12  H   UNL     1     -17.013  -3.110  10.286  0.00  0.00    +0.000 HD
ENDBRANCH   2  11
BRANCH   4  13
ATOM     13  O   UNL     1     -21.912  -1.428   6.909  0.00  0.00    +0.000 OA
ATOM     14  H   UNL     1     -21.965  -0.499   6.624  0.00  0.00    +0.000 HD
ENDBRANCH   4  13
BRANCH   1  15
ATOM     15  O   UNL     1     -21.916  -1.838   9.659  0.00  0.00    +0.000 OA
BRANCH  15  16
ATOM     16  C   UNL     1     -22.243  -0.662  10.396  0.00  0.00    +0.000 C 
ATOM     17  H   UNL     1     -22.506  -0.895  11.432  0.00  0.00    +0.000 HD
ATOM     18  H   UNL     1     -23.015  -0.071   9.890  0.00  0.00    +0.000 HD
ATOM     19  H   UNL     1     -21.340  -0.042  10.429  0.00  0.00    +0.000 HD
ENDBRANCH  15  16
ENDBRANCH   1  15
TORSDOF 4
ENDMDL
MODEL 10
REMARK VINA RESULT:    -4.026     33.597     35.472
REMARK INTER + INTRA:          -4.811
REMARK INTER:                  -4.734
REMARK INTRA:                  -0.078
REMARK UNBOUND:                -0.079
REMARK  Name = 1183
REMARK  4 active torsions:
REMARK  status: ('A' for Active; 'I' for Inactive)
REMARK    1  A    between atoms: O_1  and  C_4
REMARK    2  A    between atoms: O_1  and  C_11
REMARK    3  A    between atoms: O_2  and  C_7
REMARK    4  A    between atoms: C_5  and  C_10
REMARK                            x       y       z     vdW  Elec       q    Type
REMARK                         _______ _______ _______ _____ _____    ______ ____
ROOT
ATOM      1  C   UNL     1       8.766  12.782  -6.001  0.00  0.00    +0.000 A 
ATOM      2  C   UNL     1       9.575  13.964  -7.947  0.00  0.00    +0.000 A 
ATOM      3  C   UNL     1       9.792  13.064  -6.904  0.00  0.00    +0.000 A 
ATOM      4  C   UNL     1       7.524  13.401  -6.141  0.00  0.00    +0.000 A 
ATOM      5  C   UNL     1       8.333  14.583  -8.087  0.00  0.00    +0.000 A 
ATOM      6  C   UNL     1       7.307  14.302  -7.184  0.00  0.00    +0.000 A 
ATOM      7  H   UNL     1      10.776  12.612  -6.843  0.00  0.00    +0.000 HD
ATOM      8  H   UNL     1       8.141  15.288  -8.892  0.00  0.00    +0.000 HD
ATOM      9  H   UNL     1       6.345  14.791  -7.305  0.00  0.00    +0.000 HD
ENDROOT
BRANCH   2  11
ATOM     10  O   UNL     1      10.542  15.105  -9.780  0.00  0.00    +0.000 OA
ATOM     11  C   UNL     1      10.643  14.258  -8.888  0.00  0.00    +0.000 C 
ATOM     12  H   UNL     1      11.577  13.681  -8.776  0.00  0.00    +0.000 HD
ENDBRANCH   2  11
BRANCH   4  13
ATOM     13  O   UNL     1       6.515  13.135  -5.266  0.00  0.00    +0.000 OA
ATOM     14  H   UNL     1       5.897  13.886  -5.257  0.00  0.00    +0.000 HD
ENDBRANCH   4  13
BRANCH   1  15
ATOM     15  O   UNL     1       8.990  11.901  -4.986  0.00  0.00    +0.000 OA
BRANCH  15  16
ATOM     16  C   UNL     1       9.624  12.409  -3.814  0.00  0.00    +0.000 C 
ATOM     17  H   UNL     1       8.893  12.696  -3.052  0.00  0.00    +0.000 HD
ATOM     18  H   UNL     1      10.322  13.220  -4.051  0.00  0.00    +0.000 HD
ATOM     19  H   UNL     1      10.219  11.592  -3.391  0.00  0.00    +0.000 HD
ENDBRANCH  15  16
ENDBRANCH   1  15
TORSDOF 4
ENDMDL
