MODEL 1
REMARK VINA RESULT:    -4.419      0.000      0.000
REMARK INTER + INTRA:          -6.259
REMARK INTER:                  -5.737
REMARK INTRA:                  -0.522
REMARK UNBOUND:                -0.290
REMARK  Name = 5363388
REMARK  7 active torsions:
REMARK  status: ('A' for Active; 'I' for Inactive)
REMARK    1  A    between atoms: O_1  and  C_4
REMARK    2  A    between atoms: O_1  and  C_9
REMARK    3  A    between atoms: C_3  and  C_4
REMARK    4  A    between atoms: C_3  and  C_5
REMARK    5  A    between atoms: C_6  and  C_7
REMARK    6  A    between atoms: C_6  and  C_8
REMARK    7  A    between atoms: C_9  and  C_10
REMARK                            x       y       z     vdW  Elec       q    Type
REMARK                         _______ _______ _______ _____ _____    ______ ____
ROOT
ATOM      1  C   UNL     1       5.333  -3.567  -2.157  0.00  0.00    +0.000 C 
ATOM      2  H   UNL     1       4.975  -3.918  -3.133  0.00  0.00    +0.000 HD
ATOM      3  H   UNL     1       5.425  -4.457  -1.530  0.00  0.00    +0.000 HD
ENDROOT
BRANCH   1   4
ATOM      4  C   UNL     1       4.338  -2.573  -1.629  0.00  0.00    +0.000 C 
ATOM      5  C   UNL     1       3.764  -2.661  -0.419  0.00  0.00    +0.000 C 
ATOM      6  H   UNL     1       4.063  -1.745  -2.278  0.00  0.00    +0.000 HD
ATOM      7  H   UNL     1       3.037  -1.907  -0.128  0.00  0.00    +0.000 HD
BRANCH   5   8
ATOM      8  C   UNL     1       4.045  -3.764   0.558  0.00  0.00    +0.000 C 
ATOM      9  H   UNL     1       3.143  -4.121   1.063  0.00  0.00    +0.000 HD
ATOM     10  H   UNL     1       4.416  -4.627  -0.007  0.00  0.00    +0.000 HD
BRANCH   8  11
ATOM     11  C   UNL     1       5.102  -3.349   1.570  0.00  0.00    +0.000 C 
ATOM     12  H   UNL     1       6.045  -3.865   1.361  0.00  0.00    +0.000 HD
ATOM     13  H   UNL     1       4.800  -3.602   2.592  0.00  0.00    +0.000 HD
ATOM     14  H   UNL     1       5.293  -2.271   1.527  0.00  0.00    +0.000 HD
ENDBRANCH   8  11
ENDBRANCH   5   8
ENDBRANCH   1   4
BRANCH   1  15
ATOM     15  C   UNL     1       6.711  -2.944  -2.335  0.00  0.00    +0.000 C 
ATOM     16  H   UNL     1       7.113  -3.225  -3.315  0.00  0.00    +0.000 HD
ATOM     17  H   UNL     1       6.643  -1.849  -2.285  0.00  0.00    +0.000 HD
BRANCH  15  18
ATOM     18  O   UNL     1       7.584  -3.412  -1.315  0.00  0.00    +0.000 OA
BRANCH  18  20
ATOM     19  O   UNL     1       9.694  -2.515  -1.038  0.00  0.00    +0.000 OA
ATOM     20  C   UNL     1       8.487  -2.502  -0.838  0.00  0.00    +0.000 C 
BRANCH  20  21
ATOM     21  C   UNL     1       7.782  -1.464  -0.020  0.00  0.00    +0.000 C 
ATOM     22  H   UNL     1       6.941  -1.055  -0.587  0.00  0.00    +0.000 HD
ATOM     23  H   UNL     1       8.482  -0.672   0.256  0.00  0.00    +0.000 HD
ATOM     24  H   UNL     1       7.396  -1.923   0.894  0.00  0.00    +0.000 HD
ENDBRANCH  20  21
ENDBRANCH  18  20
ENDBRANCH  15  18
ENDBRANCH   1  15
TORSDOF 7
ENDMDL
MODEL 2
REMARK VINA RESULT:    -4.269      1.564      2.406
REMARK INTER + INTRA:          -6.056
REMARK INTER:                  -5.763
REMARK INTRA:                  -0.292
REMARK UNBOUND:                -0.290
REMARK  Name = 5363388
REMARK  7 active torsions:
REMARK  status: ('A' for Active; 'I' for Inactive)
REMARK    1  A    between atoms: O_1  and  C_4
REMARK    2  A    between atoms: O_1  and  C_9
REMARK    3  A    between atoms: C_3  and  C_4
REMARK    4  A    between atoms: C_3  and  C_5
REMARK    5  A    between atoms: C_6  and  C_7
REMARK    6  A    between atoms: C_6  and  C_8
REMARK    7  A    between atoms: C_9  and  C_10
REMARK                            x       y       z     vdW  Elec       q    Type
REMARK                         _______ _______ _______ _____ _____    ______ ____
ROOT
ATOM      1  C   UNL     1       6.978  -3.941  -1.074  0.00  0.00    +0.000 C 
ATOM      2  H   UNL     1       7.295  -4.980  -1.226  0.00  0.00    +0.000 HD
ATOM      3  H   UNL     1       6.412  -3.932  -0.139  0.00  0.00    +0.000 HD
ENDROOT
BRANCH   1   4
ATOM      4  C   UNL     1       6.161  -3.526  -2.264  0.00  0.00    +0.000 C 
ATOM      5  C   UNL     1       4.957  -2.941  -2.175  0.00  0.00    +0.000 C 
ATOM      6  H   UNL     1       6.571  -3.729  -3.249  0.00  0.00    +0.000 HD
ATOM      7  H   UNL     1       4.427  -2.693  -3.091  0.00  0.00    +0.000 HD
BRANCH   5   8
ATOM      8  C   UNL     1       4.277  -2.626  -0.876  0.00  0.00    +0.000 C 
ATOM      9  H   UNL     1       4.454  -3.386  -0.110  0.00  0.00    +0.000 HD
ATOM     10  H   UNL     1       4.725  -1.708  -0.476  0.00  0.00    +0.000 HD
BRANCH   8  11
ATOM     11  C   UNL     1       2.785  -2.397  -1.074  0.00  0.00    +0.000 C 
ATOM     12  H   UNL     1       2.621  -1.671  -1.877  0.00  0.00    +0.000 HD
ATOM     13  H   UNL     1       2.316  -2.006  -0.165  0.00  0.00    +0.000 HD
ATOM     14  H   UNL     1       2.274  -3.325  -1.351  0.00  0.00    +0.000 HD
ENDBRANCH   8  11
ENDBRANCH   5   8
ENDBRANCH   1   4
BRANCH   1  15
ATOM     15  C   UNL     1       8.217  -3.070  -0.909  0.00  0.00    +0.000 C 
ATOM     16  H   UNL     1       8.034  -2.089  -1.361  0.00  0.00    +0.000 HD
ATOM     17  H   UNL     1       8.445  -2.931   0.155  0.00  0.00    +0.000 HD
BRANCH  15  18
ATOM     18  O   UNL     1       9.324  -3.688  -1.554  0.00  0.00    +0.000 OA
BRANCH  18  20
ATOM     19  O   UNL     1      10.716  -3.302  -3.357  0.00  0.00    +0.000 OA
ATOM     20  C   UNL     1      10.013  -2.904  -2.437  0.00  0.00    +0.000 C 
BRANCH  20  21
ATOM     21  C   UNL     1       9.787  -1.457  -2.120  0.00  0.00    +0.000 C 
ATOM     22  H   UNL     1       8.961  -1.359  -1.410  0.00  0.00    +0.000 HD
ATOM     23  H   UNL     1       9.572  -0.905  -3.038  0.00  0.00    +0.000 HD
ATOM     24  H   UNL     1      10.689  -1.040  -1.664  0.00  0.00    +0.000 HD
ENDBRANCH  20  21
ENDBRANCH  18  20
ENDBRANCH  15  18
ENDBRANCH   1  15
TORSDOF 7
ENDMDL
MODEL 3
REMARK VINA RESULT:    -4.226      2.168      4.705
REMARK INTER + INTRA:          -5.998
REMARK INTER:                  -5.562
REMARK INTRA:                  -0.436
REMARK UNBOUND:                -0.290
REMARK  Name = 5363388
REMARK  7 active torsions:
REMARK  status: ('A' for Active; 'I' for Inactive)
REMARK    1  A    between atoms: O_1  and  C_4
REMARK    2  A    between atoms: O_1  and  C_9
REMARK    3  A    between atoms: C_3  and  C_4
REMARK    4  A    between atoms: C_3  and  C_5
REMARK    5  A    between atoms: C_6  and  C_7
REMARK    6  A    between atoms: C_6  and  C_8
REMARK    7  A    between atoms: C_9  and  C_10
REMARK                            x       y       z     vdW  Elec       q    Type
REMARK                         _______ _______ _______ _____ _____    ______ ____
ROOT
ATOM      1  C   UNL     1       7.702  -1.483   0.175  0.00  0.00    +0.000 C 
ATOM      2  H   UNL     1       7.581  -1.201  -0.879  0.00  0.00    +0.000 HD
ATOM      3  H   UNL     1       7.418  -0.603   0.758  0.00  0.00    +0.000 HD
ENDROOT
BRANCH   1   4
ATOM      4  C   UNL     1       9.132  -1.893   0.383  0.00  0.00    +0.000 C 
ATOM      5  C   UNL     1      10.011  -2.072  -0.615  0.00  0.00    +0.000 C 
ATOM      6  H   UNL     1       9.461  -2.066   1.405  0.00  0.00    +0.000 HD
ATOM      7  H   UNL     1      11.021  -2.389  -0.372  0.00  0.00    +0.000 HD
BRANCH   5   8
ATOM      8  C   UNL     1       9.675  -1.883  -2.065  0.00  0.00    +0.000 C 
ATOM      9  H   UNL     1       8.650  -1.536  -2.219  0.00  0.00    +0.000 HD
ATOM     10  H   UNL     1      10.311  -1.079  -2.455  0.00  0.00    +0.000 HD
BRANCH   8  11
ATOM     11  C   UNL     1       9.942  -3.151  -2.863  0.00  0.00    +0.000 C 
ATOM     12  H   UNL     1      10.722  -2.966  -3.610  0.00  0.00    +0.000 HD
ATOM     13  H   UNL     1       9.043  -3.487  -3.391  0.00  0.00    +0.000 HD
ATOM     14  H   UNL     1      10.283  -3.964  -2.215  0.00  0.00    +0.000 HD
ENDBRANCH   8  11
ENDBRANCH   5   8
ENDBRANCH   1   4
BRANCH   1  15
ATOM     15  C   UNL     1       6.737  -2.618   0.493  0.00  0.00    +0.000 C 
ATOM     16  H   UNL     1       7.292  -3.561   0.546  0.00  0.00    +0.000 HD
ATOM     17  H   UNL     1       6.249  -2.442   1.459  0.00  0.00    +0.000 HD
BRANCH  15  18
ATOM     18  O   UNL     1       5.751  -2.706  -0.528  0.00  0.00    +0.000 OA
BRANCH  18  20
ATOM     19  O   UNL     1       6.130  -4.888  -1.187  0.00  0.00    +0.000 OA
ATOM     20  C   UNL     1       5.928  -3.708  -1.442  0.00  0.00    +0.000 C 
BRANCH  20  21
ATOM     21  C   UNL     1       5.837  -3.153  -2.831  0.00  0.00    +0.000 C 
ATOM     22  H   UNL     1       4.899  -3.469  -3.295  0.00  0.00    +0.000 HD
ATOM     23  H   UNL     1       6.692  -3.492  -3.422  0.00  0.00    +0.000 HD
ATOM     24  H   UNL     1       5.854  -2.061  -2.787  0.00  0.00    +0.000 HD
ENDBRANCH  20  21
ENDBRANCH  18  20
ENDBRANCH  15  18
ENDBRANCH   1  15
TORSDOF 7
ENDMDL
MODEL 4
REMARK VINA RESULT:    -4.057      2.359      4.930
REMARK INTER + INTRA:          -5.770
REMARK INTER:                  -5.462
REMARK INTRA:                  -0.309
REMARK UNBOUND:                -0.290
REMARK  Name = 5363388
REMARK  7 active torsions:
REMARK  status: ('A' for Active; 'I' for Inactive)
REMARK    1  A    between atoms: O_1  and  C_4
REMARK    2  A    between atoms: O_1  and  C_9
REMARK    3  A    between atoms: C_3  and  C_4
REMARK    4  A    between atoms: C_3  and  C_5
REMARK    5  A    between atoms: C_6  and  C_7
REMARK    6  A    between atoms: C_6  and  C_8
REMARK    7  A    between atoms: C_9  and  C_10
REMARK                            x       y       z     vdW  Elec       q    Type
REMARK                         _______ _______ _______ _____ _____    ______ ____
ROOT
ATOM      1  C   UNL     1       8.082  -3.337  -0.455  0.00  0.00    +0.000 C 
ATOM      2  H   UNL     1       8.892  -2.713  -0.057  0.00  0.00    +0.000 HD
ATOM      3  H   UNL     1       8.465  -4.360  -0.466  0.00  0.00    +0.000 HD
ENDROOT
BRANCH   1   4
ATOM      4  C   UNL     1       7.731  -2.823  -1.822  0.00  0.00    +0.000 C 
ATOM      5  C   UNL     1       8.640  -2.522  -2.763  0.00  0.00    +0.000 C 
ATOM      6  H   UNL     1       6.678  -2.678  -2.049  0.00  0.00    +0.000 HD
ATOM      7  H   UNL     1       8.295  -2.136  -3.719  0.00  0.00    +0.000 HD
BRANCH   5   8
ATOM      8  C   UNL     1      10.120  -2.661  -2.566  0.00  0.00    +0.000 C 
ATOM      9  H   UNL     1      10.644  -1.702  -2.613  0.00  0.00    +0.000 HD
ATOM     10  H   UNL     1      10.290  -3.029  -1.547  0.00  0.00    +0.000 HD
BRANCH   8  11
ATOM     11  C   UNL     1      10.718  -3.652  -3.553  0.00  0.00    +0.000 C 
ATOM     12  H   UNL     1      11.775  -3.422  -3.723  0.00  0.00    +0.000 HD
ATOM     13  H   UNL     1      10.205  -3.613  -4.520  0.00  0.00    +0.000 HD
ATOM     14  H   UNL     1      10.655  -4.678  -3.174  0.00  0.00    +0.000 HD
ENDBRANCH   8  11
ENDBRANCH   5   8
ENDBRANCH   1   4
BRANCH   1  15
ATOM     15  C   UNL     1       6.895  -3.264   0.497  0.00  0.00    +0.000 C 
ATOM     16  H   UNL     1       7.165  -3.732   1.450  0.00  0.00    +0.000 HD
ATOM     17  H   UNL     1       6.621  -2.218   0.684  0.00  0.00    +0.000 HD
BRANCH  15  18
ATOM     18  O   UNL     1       5.785  -3.951  -0.069  0.00  0.00    +0.000 OA
BRANCH  18  20
ATOM     19  O   UNL     1       3.903  -3.535   1.202  0.00  0.00    +0.000 OA
ATOM     20  C   UNL     1       4.557  -3.403   0.176  0.00  0.00    +0.000 C 
BRANCH  20  21
ATOM     21  C   UNL     1       4.110  -2.601  -1.008  0.00  0.00    +0.000 C 
ATOM     22  H   UNL     1       3.513  -1.748  -0.673  0.00  0.00    +0.000 HD
ATOM     23  H   UNL     1       3.531  -3.233  -1.686  0.00  0.00    +0.000 HD
ATOM     24  H   UNL     1       4.986  -2.225  -1.543  0.00  0.00    +0.000 HD
ENDBRANCH  20  21
ENDBRANCH  18  20
ENDBRANCH  15  18
ENDBRANCH   1  15
TORSDOF 7
ENDMDL
MODEL 5
REMARK VINA RESULT:    -3.908     23.035     24.500
REMARK INTER + INTRA:          -5.568
REMARK INTER:                  -5.300
REMARK INTRA:                  -0.268
REMARK UNBOUND:                -0.290
REMARK  Name = 5363388
REMARK  7 active torsions:
REMARK  status: ('A' for Active; 'I' for Inactive)
REMARK    1  A    between atoms: O_1  and  C_4
REMARK    2  A    between atoms: O_1  and  C_9
REMARK    3  A    between atoms: C_3  and  C_4
REMARK    4  A    between atoms: C_3  and  C_5
REMARK    5  A    between atoms: C_6  and  C_7
REMARK    6  A    between atoms: C_6  and  C_8
REMARK    7  A    between atoms: C_9  and  C_10
REMARK                            x       y       z     vdW  Elec       q    Type
REMARK                         _______ _______ _______ _____ _____    ______ ____
ROOT
ATOM      1  C   UNL     1     -12.075 -14.687   8.348  0.00  0.00    +0.000 C 
ATOM      2  H   UNL     1     -11.906 -14.459   9.408  0.00  0.00    +0.000 HD
ATOM      3  H   UNL     1     -11.914 -13.752   7.807  0.00  0.00    +0.000 HD
ENDROOT
BRANCH   1   4
ATOM      4  C   UNL     1     -13.473 -15.218   8.207  0.00  0.00    +0.000 C 
ATOM      5  C   UNL     1     -14.444 -15.015   9.111  0.00  0.00    +0.000 C 
ATOM      6  H   UNL     1     -13.698 -15.811   7.324  0.00  0.00    +0.000 HD
ATOM      7  H   UNL     1     -15.423 -15.455   8.935  0.00  0.00    +0.000 HD
BRANCH   5   8
ATOM      8  C   UNL     1     -14.255 -14.232  10.376  0.00  0.00    +0.000 C 
ATOM      9  H   UNL     1     -14.665 -14.740  11.253  0.00  0.00    +0.000 HD
ATOM     10  H   UNL     1     -13.177 -14.159  10.567  0.00  0.00    +0.000 HD
BRANCH   8  11
ATOM     11  C   UNL     1     -14.827 -12.828  10.248  0.00  0.00    +0.000 C 
ATOM     12  H   UNL     1     -15.889 -12.830  10.516  0.00  0.00    +0.000 HD
ATOM     13  H   UNL     1     -14.739 -12.452   9.223  0.00  0.00    +0.000 HD
ATOM     14  H   UNL     1     -14.314 -12.127  10.915  0.00  0.00    +0.000 HD
ENDBRANCH   8  11
ENDBRANCH   5   8
ENDBRANCH   1   4
BRANCH   1  15
ATOM     15  C   UNL     1     -11.037 -15.705   7.895  0.00  0.00    +0.000 C 
ATOM     16  H   UNL     1     -11.227 -15.978   6.851  0.00  0.00    +0.000 HD
ATOM     17  H   UNL     1     -10.029 -15.278   7.969  0.00  0.00    +0.000 HD
BRANCH  15  18
ATOM     18  O   UNL     1     -11.120 -16.868   8.710  0.00  0.00    +0.000 OA
BRANCH  18  20
ATOM     19  O   UNL     1      -9.969 -18.851   8.993  0.00  0.00    +0.000 OA
ATOM     20  C   UNL     1     -10.000 -17.653   8.745  0.00  0.00    +0.000 C 
BRANCH  20  21
ATOM     21  C   UNL     1      -8.790 -16.828   8.431  0.00  0.00    +0.000 C 
ATOM     22  H   UNL     1      -7.886 -17.428   8.576  0.00  0.00    +0.000 HD
ATOM     23  H   UNL     1      -8.769 -15.941   9.069  0.00  0.00    +0.000 HD
ATOM     24  H   UNL     1      -8.830 -16.507   7.386  0.00  0.00    +0.000 HD
ENDBRANCH  20  21
ENDBRANCH  18  20
ENDBRANCH  15  18
ENDBRANCH   1  15
TORSDOF 7
ENDMDL
MODEL 6
REMARK VINA RESULT:    -3.907     15.101     15.737
REMARK INTER + INTRA:          -5.567
REMARK INTER:                  -5.305
REMARK INTRA:                  -0.261
REMARK UNBOUND:                -0.290
REMARK  Name = 5363388
REMARK  7 active torsions:
REMARK  status: ('A' for Active; 'I' for Inactive)
REMARK    1  A    between atoms: O_1  and  C_4
REMARK    2  A    between atoms: O_1  and  C_9
REMARK    3  A    between atoms: C_3  and  C_4
REMARK    4  A    between atoms: C_3  and  C_5
REMARK    5  A    between atoms: C_6  and  C_7
REMARK    6  A    between atoms: C_6  and  C_8
REMARK    7  A    between atoms: C_9  and  C_10
REMARK                            x       y       z     vdW  Elec       q    Type
REMARK                         _______ _______ _______ _____ _____    ______ ____
ROOT
ATOM      1  C   UNL     1       6.396  13.312  -0.047  0.00  0.00    +0.000 C 
ATOM      2  H   UNL     1       6.732  13.840   0.854  0.00  0.00    +0.000 HD
ATOM      3  H   UNL     1       5.602  13.926  -0.480  0.00  0.00    +0.000 HD
ENDROOT
BRANCH   1   4
ATOM      4  C   UNL     1       5.928  11.945   0.364  0.00  0.00    +0.000 C 
ATOM      5  C   UNL     1       5.722  11.578   1.639  0.00  0.00    +0.000 C 
ATOM      6  H   UNL     1       5.762  11.214  -0.422  0.00  0.00    +0.000 HD
ATOM      7  H   UNL     1       5.402  10.560   1.845  0.00  0.00    +0.000 HD
BRANCH   5   8
ATOM      8  C   UNL     1       5.934  12.488   2.812  0.00  0.00    +0.000 C 
ATOM      9  H   UNL     1       6.903  12.337   3.295  0.00  0.00    +0.000 HD
ATOM     10  H   UNL     1       5.960  13.519   2.438  0.00  0.00    +0.000 HD
BRANCH   8  11
ATOM     11  C   UNL     1       4.801  12.361   3.821  0.00  0.00    +0.000 C 
ATOM     12  H   UNL     1       4.185  13.266   3.808  0.00  0.00    +0.000 HD
ATOM     13  H   UNL     1       5.185  12.229   4.838  0.00  0.00    +0.000 HD
ATOM     14  H   UNL     1       4.153  11.510   3.586  0.00  0.00    +0.000 HD
ENDBRANCH   8  11
ENDBRANCH   5   8
ENDBRANCH   1   4
BRANCH   1  15
ATOM     15  C   UNL     1       7.555  13.238  -1.033  0.00  0.00    +0.000 C 
ATOM     16  H   UNL     1       8.266  14.044  -0.818  0.00  0.00    +0.000 HD
ATOM     17  H   UNL     1       8.075  12.276  -0.936  0.00  0.00    +0.000 HD
BRANCH  15  18
ATOM     18  O   UNL     1       7.065  13.382  -2.360  0.00  0.00    +0.000 OA
BRANCH  18  20
ATOM     19  O   UNL     1       7.770  13.077  -4.538  0.00  0.00    +0.000 OA
ATOM     20  C   UNL     1       7.831  12.820  -3.343  0.00  0.00    +0.000 C 
BRANCH  20  21
ATOM     21  C   UNL     1       8.779  11.826  -2.746  0.00  0.00    +0.000 C 
ATOM     22  H   UNL     1       8.730  11.877  -1.654  0.00  0.00    +0.000 HD
ATOM     23  H   UNL     1       9.795  12.026  -3.095  0.00  0.00    +0.000 HD
ATOM     24  H   UNL     1       8.494  10.818  -3.060  0.00  0.00    +0.000 HD
ENDBRANCH  20  21
ENDBRANCH  18  20
ENDBRANCH  15  18
ENDBRANCH   1  15
TORSDOF 7
ENDMDL
MODEL 7
REMARK VINA RESULT:    -3.867     14.053     15.004
REMARK INTER + INTRA:          -5.513
REMARK INTER:                  -5.104
REMARK INTRA:                  -0.408
REMARK UNBOUND:                -0.290
REMARK  Name = 5363388
REMARK  7 active torsions:
REMARK  status: ('A' for Active; 'I' for Inactive)
REMARK    1  A    between atoms: O_1  and  C_4
REMARK    2  A    between atoms: O_1  and  C_9
REMARK    3  A    between atoms: C_3  and  C_4
REMARK    4  A    between atoms: C_3  and  C_5
REMARK    5  A    between atoms: C_6  and  C_7
REMARK    6  A    between atoms: C_6  and  C_8
REMARK    7  A    between atoms: C_9  and  C_10
REMARK                            x       y       z     vdW  Elec       q    Type
REMARK                         _______ _______ _______ _____ _____    ______ ____
ROOT
ATOM      1  C   UNL     1      -6.100  -5.997  -8.113  0.00  0.00    +0.000 C 
ATOM      2  H   UNL     1      -6.605  -5.025  -8.049  0.00  0.00    +0.000 HD
ATOM      3  H   UNL     1      -5.107  -5.851  -7.681  0.00  0.00    +0.000 HD
ENDROOT
BRANCH   1   4
ATOM      4  C   UNL     1      -6.062  -6.405  -9.558  0.00  0.00    +0.000 C 
ATOM      5  C   UNL     1      -4.934  -6.713 -10.217  0.00  0.00    +0.000 C 
ATOM      6  H   UNL     1      -7.006  -6.437 -10.095  0.00  0.00    +0.000 HD
ATOM      7  H   UNL     1      -4.999  -6.979 -11.269  0.00  0.00    +0.000 HD
BRANCH   5   8
ATOM      8  C   UNL     1      -3.571  -6.689  -9.593  0.00  0.00    +0.000 C 
ATOM      9  H   UNL     1      -2.862  -6.070 -10.151  0.00  0.00    +0.000 HD
ATOM     10  H   UNL     1      -3.659  -6.208  -8.612  0.00  0.00    +0.000 HD
BRANCH   8  11
ATOM     11  C   UNL     1      -3.025  -8.096  -9.403  0.00  0.00    +0.000 C 
ATOM     12  H   UNL     1      -1.997  -8.052  -9.028  0.00  0.00    +0.000 HD
ATOM     13  H   UNL     1      -3.015  -8.653 -10.346  0.00  0.00    +0.000 HD
ATOM     14  H   UNL     1      -3.622  -8.660  -8.679  0.00  0.00    +0.000 HD
ENDBRANCH   8  11
ENDBRANCH   5   8
ENDBRANCH   1   4
BRANCH   1  15
ATOM     15  C   UNL     1      -6.865  -7.003  -7.262  0.00  0.00    +0.000 C 
ATOM     16  H   UNL     1      -6.714  -6.771  -6.202  0.00  0.00    +0.000 HD
ATOM     17  H   UNL     1      -7.938  -6.950  -7.485  0.00  0.00    +0.000 HD
BRANCH  15  18
ATOM     18  O   UNL     1      -6.389  -8.316  -7.531  0.00  0.00    +0.000 OA
BRANCH  18  20
ATOM     19  O   UNL     1      -4.675  -9.566  -6.617  0.00  0.00    +0.000 OA
ATOM     20  C   UNL     1      -5.713  -8.926  -6.511  0.00  0.00    +0.000 C 
BRANCH  20  21
ATOM     21  C   UNL     1      -6.430  -8.698  -5.215  0.00  0.00    +0.000 C 
ATOM     22  H   UNL     1      -7.183  -7.915  -5.342  0.00  0.00    +0.000 HD
ATOM     23  H   UNL     1      -5.713  -8.419  -4.439  0.00  0.00    +0.000 HD
ATOM     24  H   UNL     1      -6.933  -9.620  -4.912  0.00  0.00    +0.000 HD
ENDBRANCH  20  21
ENDBRANCH  18  20
ENDBRANCH  15  18
ENDBRANCH   1  15
TORSDOF 7
ENDMDL
MODEL 8
REMARK VINA RESULT:    -3.825      9.731     11.013
REMARK INTER + INTRA:          -5.456
REMARK INTER:                  -5.191
REMARK INTRA:                  -0.265
REMARK UNBOUND:                -0.290
REMARK  Name = 5363388
REMARK  7 active torsions:
REMARK  status: ('A' for Active; 'I' for Inactive)
REMARK    1  A    between atoms: O_1  and  C_4
REMARK    2  A    between atoms: O_1  and  C_9
REMARK    3  A    between atoms: C_3  and  C_4
REMARK    4  A    between atoms: C_3  and  C_5
REMARK    5  A    between atoms: C_6  and  C_7
REMARK    6  A    between atoms: C_6  and  C_8
REMARK    7  A    between atoms: C_9  and  C_10
REMARK                            x       y       z     vdW  Elec       q    Type
REMARK                         _______ _______ _______ _____ _____    ______ ____
ROOT
ATOM      1  C   UNL     1       5.160 -13.805   0.030  0.00  0.00    +0.000 C 
ATOM      2  H   UNL     1       6.073 -14.329  -0.282  0.00  0.00    +0.000 HD
ATOM      3  H   UNL     1       4.342 -14.263  -0.532  0.00  0.00    +0.000 HD
ENDROOT
BRANCH   1   4
ATOM      4  C   UNL     1       5.339 -12.344  -0.272  0.00  0.00    +0.000 C 
ATOM      5  C   UNL     1       6.519 -11.783  -0.576  0.00  0.00    +0.000 C 
ATOM      6  H   UNL     1       4.457 -11.711  -0.225  0.00  0.00    +0.000 HD
ATOM      7  H   UNL     1       6.558 -10.713  -0.760  0.00  0.00    +0.000 HD
BRANCH   5   8
ATOM      8  C   UNL     1       7.809 -12.545  -0.654  0.00  0.00    +0.000 C 
ATOM      9  H   UNL     1       7.851 -13.378   0.052  0.00  0.00    +0.000 HD
ATOM     10  H   UNL     1       7.865 -13.009  -1.647  0.00  0.00    +0.000 HD
BRANCH   8  11
ATOM     11  C   UNL     1       9.007 -11.624  -0.475  0.00  0.00    +0.000 C 
ATOM     12  H   UNL     1       8.787 -10.867   0.285  0.00  0.00    +0.000 HD
ATOM     13  H   UNL     1       9.254 -11.104  -1.407  0.00  0.00    +0.000 HD
ATOM     14  H   UNL     1       9.891 -12.181  -0.148  0.00  0.00    +0.000 HD
ENDBRANCH   8  11
ENDBRANCH   5   8
ENDBRANCH   1   4
BRANCH   1  15
ATOM     15  C   UNL     1       4.937 -14.051   1.516  0.00  0.00    +0.000 C 
ATOM     16  H   UNL     1       4.082 -14.723   1.649  0.00  0.00    +0.000 HD
ATOM     17  H   UNL     1       5.825 -14.519   1.961  0.00  0.00    +0.000 HD
BRANCH  15  18
ATOM     18  O   UNL     1       4.674 -12.816   2.171  0.00  0.00    +0.000 OA
BRANCH  18  20
ATOM     19  O   UNL     1       2.757 -11.729   2.861  0.00  0.00    +0.000 OA
ATOM     20  C   UNL     1       3.466 -12.724   2.806  0.00  0.00    +0.000 C 
BRANCH  20  21
ATOM     21  C   UNL     1       3.122 -14.037   3.440  0.00  0.00    +0.000 C 
ATOM     22  H   UNL     1       2.190 -14.421   3.015  0.00  0.00    +0.000 HD
ATOM     23  H   UNL     1       3.029 -13.913   4.522  0.00  0.00    +0.000 HD
ATOM     24  H   UNL     1       3.920 -14.758   3.239  0.00  0.00    +0.000 HD
ENDBRANCH  20  21
ENDBRANCH  18  20
ENDBRANCH  15  18
ENDBRANCH   1  15
TORSDOF 7
ENDMDL
MODEL 9
REMARK VINA RESULT:    -3.823      8.788      9.575
REMARK INTER + INTRA:          -5.453
REMARK INTER:                  -5.202
REMARK INTRA:                  -0.251
REMARK UNBOUND:                -0.290
REMARK  Name = 5363388
REMARK  7 active torsions:
REMARK  status: ('A' for Active; 'I' for Inactive)
REMARK    1  A    between atoms: O_1  and  C_4
REMARK    2  A    between atoms: O_1  and  C_9
REMARK    3  A    between atoms: C_3  and  C_4
REMARK    4  A    between atoms: C_3  and  C_5
REMARK    5  A    between atoms: C_6  and  C_7
REMARK    6  A    between atoms: C_6  and  C_8
REMARK    7  A    between atoms: C_9  and  C_10
REMARK                            x       y       z     vdW  Elec       q    Type
REMARK                         _______ _______ _______ _____ _____    ______ ____
ROOT
ATOM      1  C   UNL     1      11.819 -10.011  -2.525  0.00  0.00    +0.000 C 
ATOM      2  H   UNL     1      11.244 -10.945  -2.484  0.00  0.00    +0.000 HD
ATOM      3  H   UNL     1      12.806 -10.246  -2.119  0.00  0.00    +0.000 HD
ENDROOT
BRANCH   1   4
ATOM      4  C   UNL     1      11.081  -8.977  -1.724  0.00  0.00    +0.000 C 
ATOM      5  C   UNL     1      10.098  -9.264  -0.858  0.00  0.00    +0.000 C 
ATOM      6  H   UNL     1      11.359  -7.936  -1.872  0.00  0.00    +0.000 HD
ATOM      7  H   UNL     1       9.605  -8.448  -0.336  0.00  0.00    +0.000 HD
BRANCH   5   8
ATOM      8  C   UNL     1       9.612 -10.656  -0.581  0.00  0.00    +0.000 C 
ATOM      9  H   UNL     1      10.018 -11.392  -1.279  0.00  0.00    +0.000 HD
ATOM     10  H   UNL     1       9.993 -10.955   0.403  0.00  0.00    +0.000 HD
BRANCH   8  11
ATOM     11  C   UNL     1       8.092 -10.716  -0.557  0.00  0.00    +0.000 C 
ATOM     12  H   UNL     1       7.709 -10.176   0.316  0.00  0.00    +0.000 HD
ATOM     13  H   UNL     1       7.733 -11.749  -0.498  0.00  0.00    +0.000 HD
ATOM     14  H   UNL     1       7.661 -10.255  -1.452  0.00  0.00    +0.000 HD
ENDBRANCH   8  11
ENDBRANCH   5   8
ENDBRANCH   1   4
BRANCH   1  15
ATOM     15  C   UNL     1      11.971  -9.594  -3.982  0.00  0.00    +0.000 C 
ATOM     16  H   UNL     1      11.000  -9.671  -4.485  0.00  0.00    +0.000 HD
ATOM     17  H   UNL     1      12.318  -8.555  -4.046  0.00  0.00    +0.000 HD
BRANCH  15  18
ATOM     18  O   UNL     1      12.907 -10.447  -4.629  0.00  0.00    +0.000 OA
BRANCH  18  20
ATOM     19  O   UNL     1      14.756  -9.077  -4.434  0.00  0.00    +0.000 OA
ATOM     20  C   UNL     1      14.225 -10.179  -4.386  0.00  0.00    +0.000 C 
BRANCH  20  21
ATOM     21  C   UNL     1      14.949 -11.445  -4.044  0.00  0.00    +0.000 C 
ATOM     22  H   UNL     1      14.468 -11.927  -3.189  0.00  0.00    +0.000 HD
ATOM     23  H   UNL     1      15.997 -11.225  -3.823  0.00  0.00    +0.000 HD
ATOM     24  H   UNL     1      14.909 -12.128  -4.897  0.00  0.00    +0.000 HD
ENDBRANCH  20  21
ENDBRANCH  18  20
ENDBRANCH  15  18
ENDBRANCH   1  15
TORSDOF 7
ENDMDL
MODEL 10
REMARK VINA RESULT:    -3.817     16.141     17.360
REMARK INTER + INTRA:          -5.445
REMARK INTER:                  -5.155
REMARK INTRA:                  -0.290
REMARK UNBOUND:                -0.290
REMARK  Name = 5363388
REMARK  7 active torsions:
REMARK  status: ('A' for Active; 'I' for Inactive)
REMARK    1  A    between atoms: O_1  and  C_4
REMARK    2  A    between atoms: O_1  and  C_9
REMARK    3  A    between atoms: C_3  and  C_4
REMARK    4  A    between atoms: C_3  and  C_5
REMARK    5  A    between atoms: C_6  and  C_7
REMARK    6  A    between atoms: C_6  and  C_8
REMARK    7  A    between atoms: C_9  and  C_10
REMARK                            x       y       z     vdW  Elec       q    Type
REMARK                         _______ _______ _______ _____ _____    ______ ____
ROOT
ATOM      1  C   UNL     1       9.513  12.336  -6.530  0.00  0.00    +0.000 C 
ATOM      2  H   UNL     1       8.617  11.849  -6.124  0.00  0.00    +0.000 HD
ATOM      3  H   UNL     1       9.983  11.604  -7.191  0.00  0.00    +0.000 HD
ENDROOT
BRANCH   1   4
ATOM      4  C   UNL     1      10.386  12.736  -5.375  0.00  0.00    +0.000 C 
ATOM      5  C   UNL     1      10.027  12.609  -4.088  0.00  0.00    +0.000 C 
ATOM      6  H   UNL     1      11.358  13.163  -5.605  0.00  0.00    +0.000 HD
ATOM      7  H   UNL     1      10.716  12.943  -3.317  0.00  0.00    +0.000 HD
BRANCH   5   8
ATOM      8  C   UNL     1       8.707  12.052  -3.642  0.00  0.00    +0.000 C 
ATOM      9  H   UNL     1       7.870  12.719  -3.867  0.00  0.00    +0.000 HD
ATOM     10  H   UNL     1       8.513  11.143  -4.224  0.00  0.00    +0.000 HD
BRANCH   8  11
ATOM     11  C   UNL     1       8.730  11.693  -2.164  0.00  0.00    +0.000 C 
ATOM     12  H   UNL     1       8.065  12.360  -1.605  0.00  0.00    +0.000 HD
ATOM     13  H   UNL     1       9.737  11.792  -1.744  0.00  0.00    +0.000 HD
ATOM     14  H   UNL     1       8.391  10.665  -1.999  0.00  0.00    +0.000 HD
ENDBRANCH   8  11
ENDBRANCH   5   8
ENDBRANCH   1   4
BRANCH   1  15
ATOM     15  C   UNL     1       9.083  13.542  -7.355  0.00  0.00    +0.000 C 
ATOM     16  H   UNL     1       9.966  14.138  -7.614  0.00  0.00    +0.000 HD
ATOM     17  H   UNL     1       8.596  13.214  -8.283  0.00  0.00    +0.000 HD
BRANCH  15  18
ATOM     18  O   UNL     1       8.179  14.340  -6.601  0.00  0.00    +0.000 OA
BRANCH  18  20
ATOM     19  O   UNL     1       6.069  13.400  -6.572  0.00  0.00    +0.000 OA
ATOM     20  C   UNL     1       6.862  14.248  -6.959  0.00  0.00    +0.000 C 
BRANCH  20  21
ATOM     21  C   UNL     1       6.514  15.351  -7.911  0.00  0.00    +0.000 C 
ATOM     22  H   UNL     1       7.360  16.038  -8.007  0.00  0.00    +0.000 HD
ATOM     23  H   UNL     1       5.627  15.882  -7.555  0.00  0.00    +0.000 HD
ATOM     24  H   UNL     1       6.296  14.927  -8.895  0.00  0.00    +0.000 HD
ENDBRANCH  20  21
ENDBRANCH  18  20
ENDBRANCH  15  18
ENDBRANCH   1  15
TORSDOF 7
ENDMDL
