MODEL 1
REMARK VINA RESULT:    -5.236      0.000      0.000
REMARK INTER + INTRA:          -6.363
REMARK INTER:                  -6.191
REMARK INTRA:                  -0.172
REMARK UNBOUND:                -0.209
REMARK  Name = 17100
REMARK  5 active torsions:
REMARK  status: ('A' for Active; 'I' for Inactive)
REMARK    1  A    between atoms: O_1  and  C_3
REMARK    2  A    between atoms: C_2  and  C_3
REMARK    3  A    between atoms: C_3  and  C_9
REMARK    4  A    between atoms: C_3  and  C_10
REMARK    5  A    between atoms: C_7  and  C_11
REMARK                            x       y       z     vdW  Elec       q    Type
REMARK                         _______ _______ _______ _____ _____    ______ ____
ROOT
ATOM      1  C   UNL     1       7.711 -11.194  -0.702  0.00  0.00    +0.000 C 
ATOM      2  C   UNL     1       8.291 -10.094   0.194  0.00  0.00    +0.000 C 
ATOM      3  C   UNL     1       8.842 -12.063  -1.275  0.00  0.00    +0.000 C 
ATOM      4  C   UNL     1       9.262  -9.200  -0.586  0.00  0.00    +0.000 C 
ATOM      5  C   UNL     1      10.201  -9.965  -1.485  0.00  0.00    +0.000 C 
ATOM      6  C   UNL     1      10.007 -11.262  -1.777  0.00  0.00    +0.000 C 
ATOM      7  H   UNL     1       7.196 -10.704  -1.541  0.00  0.00    +0.000 HD
ATOM      8  H   UNL     1       8.819 -10.536   1.048  0.00  0.00    +0.000 HD
ATOM      9  H   UNL     1       7.514  -9.439   0.600  0.00  0.00    +0.000 HD
ATOM     10  H   UNL     1       8.460 -12.650  -2.118  0.00  0.00    +0.000 HD
ATOM     11  H   UNL     1       9.226 -12.775  -0.534  0.00  0.00    +0.000 HD
ATOM     12  H   UNL     1       9.837  -8.605   0.134  0.00  0.00    +0.000 HD
ATOM     13  H   UNL     1       8.690  -8.495  -1.202  0.00  0.00    +0.000 HD
ATOM     14  H   UNL     1      10.717 -11.785  -2.412  0.00  0.00    +0.000 HD
ENDROOT
BRANCH   5  15
ATOM     15  C   UNL     1      11.362  -9.191  -2.037  0.00  0.00    +0.000 C 
ATOM     16  H   UNL     1      11.606  -9.542  -3.046  0.00  0.00    +0.000 HD
ATOM     17  H   UNL     1      12.261  -9.299  -1.420  0.00  0.00    +0.000 HD
ATOM     18  H   UNL     1      11.119  -8.125  -2.089  0.00  0.00    +0.000 HD
ENDBRANCH   5  15
BRANCH   1  19
ATOM     19  C   UNL     1       6.703 -12.051   0.061  0.00  0.00    +0.000 C 
BRANCH  19  20
ATOM     20  C   UNL     1       7.202 -13.489   0.198  0.00  0.00    +0.000 C 
ATOM     21  H   UNL     1       7.097 -13.859   1.224  0.00  0.00    +0.000 HD
ATOM     22  H   UNL     1       8.260 -13.559  -0.079  0.00  0.00    +0.000 HD
ATOM     23  H   UNL     1       6.681 -14.170  -0.482  0.00  0.00    +0.000 HD
ENDBRANCH  19  20
BRANCH  19  24
ATOM     24  C   UNL     1       5.340 -12.020  -0.628  0.00  0.00    +0.000 C 
ATOM     25  H   UNL     1       4.961 -11.001  -0.760  0.00  0.00    +0.000 HD
ATOM     26  H   UNL     1       5.360 -12.530  -1.597  0.00  0.00    +0.000 HD
ATOM     27  H   UNL     1       4.586 -12.520  -0.007  0.00  0.00    +0.000 HD
ENDBRANCH  19  24
BRANCH  19  28
ATOM     28  O   UNL     1       6.535 -11.501   1.369  0.00  0.00    +0.000 OA
ATOM     29  H   UNL     1       6.556 -12.235   2.008  0.00  0.00    +0.000 HD
ENDBRANCH  19  28
ENDBRANCH   1  19
TORSDOF 5
ENDMDL
MODEL 2
REMARK VINA RESULT:    -5.227      7.776      9.472
REMARK INTER + INTRA:          -6.352
REMARK INTER:                  -6.173
REMARK INTRA:                  -0.178
REMARK UNBOUND:                -0.209
REMARK  Name = 17100
REMARK  5 active torsions:
REMARK  status: ('A' for Active; 'I' for Inactive)
REMARK    1  A    between atoms: O_1  and  C_3
REMARK    2  A    between atoms: C_2  and  C_3
REMARK    3  A    between atoms: C_3  and  C_9
REMARK    4  A    between atoms: C_3  and  C_10
REMARK    5  A    between atoms: C_7  and  C_11
REMARK                            x       y       z     vdW  Elec       q    Type
REMARK                         _______ _______ _______ _____ _____    ______ ____
ROOT
ATOM      1  C   UNL     1       7.401  -3.203  -1.786  0.00  0.00    +0.000 C 
ATOM      2  C   UNL     1       7.031  -2.233  -0.659  0.00  0.00    +0.000 C 
ATOM      3  C   UNL     1       6.430  -3.043  -2.965  0.00  0.00    +0.000 C 
ATOM      4  C   UNL     1       5.601  -2.479  -0.165  0.00  0.00    +0.000 C 
ATOM      5  C   UNL     1       4.606  -2.705  -1.276  0.00  0.00    +0.000 C 
ATOM      6  C   UNL     1       4.994  -2.945  -2.540  0.00  0.00    +0.000 C 
ATOM      7  H   UNL     1       7.299  -4.225  -1.392  0.00  0.00    +0.000 HD
ATOM      8  H   UNL     1       7.116  -1.195  -1.005  0.00  0.00    +0.000 HD
ATOM      9  H   UNL     1       7.688  -2.337   0.210  0.00  0.00    +0.000 HD
ATOM     10  H   UNL     1       6.516  -3.911  -3.630  0.00  0.00    +0.000 HD
ATOM     11  H   UNL     1       6.658  -2.154  -3.565  0.00  0.00    +0.000 HD
ATOM     12  H   UNL     1       5.292  -1.619   0.442  0.00  0.00    +0.000 HD
ATOM     13  H   UNL     1       5.590  -3.358   0.492  0.00  0.00    +0.000 HD
ATOM     14  H   UNL     1       4.248  -3.082  -3.318  0.00  0.00    +0.000 HD
ENDROOT
BRANCH   5  15
ATOM     15  C   UNL     1       3.158  -2.649  -0.888  0.00  0.00    +0.000 C 
ATOM     16  H   UNL     1       2.702  -1.723  -1.255  0.00  0.00    +0.000 HD
ATOM     17  H   UNL     1       3.020  -2.681   0.199  0.00  0.00    +0.000 HD
ATOM     18  H   UNL     1       2.616  -3.498  -1.317  0.00  0.00    +0.000 HD
ENDBRANCH   5  15
BRANCH   1  19
ATOM     19  C   UNL     1       8.844  -2.994  -2.240  0.00  0.00    +0.000 C 
BRANCH  19  20
ATOM     20  C   UNL     1       9.758  -4.080  -1.673  0.00  0.00    +0.000 C 
ATOM     21  H   UNL     1      10.412  -3.690  -0.885  0.00  0.00    +0.000 HD
ATOM     22  H   UNL     1      10.393  -4.501  -2.461  0.00  0.00    +0.000 HD
ATOM     23  H   UNL     1       9.190  -4.928  -1.277  0.00  0.00    +0.000 HD
ENDBRANCH  19  20
BRANCH  19  24
ATOM     24  C   UNL     1       9.342  -1.608  -1.832  0.00  0.00    +0.000 C 
ATOM     25  H   UNL     1       9.445  -0.932  -2.688  0.00  0.00    +0.000 HD
ATOM     26  H   UNL     1       8.695  -1.147  -1.079  0.00  0.00    +0.000 HD
ATOM     27  H   UNL     1      10.351  -1.675  -1.405  0.00  0.00    +0.000 HD
ENDBRANCH  19  24
BRANCH  19  28
ATOM     28  O   UNL     1       8.888  -3.063  -3.666  0.00  0.00    +0.000 OA
ATOM     29  H   UNL     1       8.943  -2.154  -4.009  0.00  0.00    +0.000 HD
ENDBRANCH  19  28
ENDBRANCH   1  19
TORSDOF 5
ENDMDL
MODEL 3
REMARK VINA RESULT:    -5.154      3.164      5.497
REMARK INTER + INTRA:          -6.267
REMARK INTER:                  -6.065
REMARK INTRA:                  -0.202
REMARK UNBOUND:                -0.209
REMARK  Name = 17100
REMARK  5 active torsions:
REMARK  status: ('A' for Active; 'I' for Inactive)
REMARK    1  A    between atoms: O_1  and  C_3
REMARK    2  A    between atoms: C_2  and  C_3
REMARK    3  A    between atoms: C_3  and  C_9
REMARK    4  A    between atoms: C_3  and  C_10
REMARK    5  A    between atoms: C_7  and  C_11
REMARK                            x       y       z     vdW  Elec       q    Type
REMARK                         _______ _______ _______ _____ _____    ______ ____
ROOT
ATOM      1  C   UNL     1      11.817 -10.282  -2.331  0.00  0.00    +0.000 C 
ATOM      2  C   UNL     1      11.165  -8.936  -1.995  0.00  0.00    +0.000 C 
ATOM      3  C   UNL     1      10.743 -11.311  -2.716  0.00  0.00    +0.000 C 
ATOM      4  C   UNL     1      10.171  -9.076  -0.838  0.00  0.00    +0.000 C 
ATOM      5  C   UNL     1       9.290 -10.296  -0.940  0.00  0.00    +0.000 C 
ATOM      6  C   UNL     1       9.552 -11.292  -1.803  0.00  0.00    +0.000 C 
ATOM      7  H   UNL     1      12.327 -10.640  -1.424  0.00  0.00    +0.000 HD
ATOM      8  H   UNL     1      10.640  -8.537  -2.872  0.00  0.00    +0.000 HD
ATOM      9  H   UNL     1      11.901  -8.184  -1.692  0.00  0.00    +0.000 HD
ATOM     10  H   UNL     1      11.171 -12.319  -2.674  0.00  0.00    +0.000 HD
ATOM     11  H   UNL     1      10.377 -11.157  -3.738  0.00  0.00    +0.000 HD
ATOM     12  H   UNL     1       9.552  -8.171  -0.803  0.00  0.00    +0.000 HD
ATOM     13  H   UNL     1      10.721  -9.125   0.110  0.00  0.00    +0.000 HD
ATOM     14  H   UNL     1       8.882 -12.146  -1.862  0.00  0.00    +0.000 HD
ENDROOT
BRANCH   5  15
ATOM     15  C   UNL     1       8.106 -10.334  -0.019  0.00  0.00    +0.000 C 
ATOM     16  H   UNL     1       7.324 -10.980  -0.433  0.00  0.00    +0.000 HD
ATOM     17  H   UNL     1       7.670  -9.340   0.135  0.00  0.00    +0.000 HD
ATOM     18  H   UNL     1       8.398 -10.725   0.961  0.00  0.00    +0.000 HD
ENDBRANCH   5  15
BRANCH   1  19
ATOM     19  C   UNL     1      12.848 -10.131  -3.447  0.00  0.00    +0.000 C 
BRANCH  19  20
ATOM     20  C   UNL     1      12.318  -9.229  -4.562  0.00  0.00    +0.000 C 
ATOM     21  H   UNL     1      11.856  -9.808  -5.368  0.00  0.00    +0.000 HD
ATOM     22  H   UNL     1      13.131  -8.634  -4.996  0.00  0.00    +0.000 HD
ATOM     23  H   UNL     1      11.595  -8.498  -4.187  0.00  0.00    +0.000 HD
ENDBRANCH  19  20
BRANCH  19  24
ATOM     24  C   UNL     1      13.240 -11.498  -4.006  0.00  0.00    +0.000 C 
ATOM     25  H   UNL     1      14.316 -11.582  -4.190  0.00  0.00    +0.000 HD
ATOM     26  H   UNL     1      12.917 -12.315  -3.353  0.00  0.00    +0.000 HD
ATOM     27  H   UNL     1      12.776 -11.657  -4.988  0.00  0.00    +0.000 HD
ENDBRANCH  19  24
BRANCH  19  28
ATOM     28  O   UNL     1      14.027  -9.537  -2.903  0.00  0.00    +0.000 OA
ATOM     29  H   UNL     1      14.261 -10.021  -2.092  0.00  0.00    +0.000 HD
ENDBRANCH  19  28
ENDBRANCH   1  19
TORSDOF 5
ENDMDL
MODEL 4
REMARK VINA RESULT:    -4.916      3.628      6.328
REMARK INTER + INTRA:          -5.986
REMARK INTER:                  -5.781
REMARK INTRA:                  -0.205
REMARK UNBOUND:                -0.209
REMARK  Name = 17100
REMARK  5 active torsions:
REMARK  status: ('A' for Active; 'I' for Inactive)
REMARK    1  A    between atoms: O_1  and  C_3
REMARK    2  A    between atoms: C_2  and  C_3
REMARK    3  A    between atoms: C_3  and  C_9
REMARK    4  A    between atoms: C_3  and  C_10
REMARK    5  A    between atoms: C_7  and  C_11
REMARK                            x       y       z     vdW  Elec       q    Type
REMARK                         _______ _______ _______ _____ _____    ______ ____
ROOT
ATOM      1  C   UNL     1       5.092 -12.897   1.152  0.00  0.00    +0.000 C 
ATOM      2  C   UNL     1       3.792 -12.245   1.636  0.00  0.00    +0.000 C 
ATOM      3  C   UNL     1       4.902 -14.414   1.006  0.00  0.00    +0.000 C 
ATOM      4  C   UNL     1       3.351 -12.825   2.984  0.00  0.00    +0.000 C 
ATOM      5  C   UNL     1       3.478 -14.325   3.070  0.00  0.00    +0.000 C 
ATOM      6  C   UNL     1       4.170 -15.033   2.161  0.00  0.00    +0.000 C 
ATOM      7  H   UNL     1       5.859 -12.719   1.919  0.00  0.00    +0.000 HD
ATOM      8  H   UNL     1       2.992 -12.398   0.901  0.00  0.00    +0.000 HD
ATOM      9  H   UNL     1       3.898 -11.164   1.774  0.00  0.00    +0.000 HD
ATOM     10  H   UNL     1       5.883 -14.901   0.942  0.00  0.00    +0.000 HD
ATOM     11  H   UNL     1       4.354 -14.672   0.092  0.00  0.00    +0.000 HD
ATOM     12  H   UNL     1       2.310 -12.528   3.163  0.00  0.00    +0.000 HD
ATOM     13  H   UNL     1       3.955 -12.380   3.785  0.00  0.00    +0.000 HD
ATOM     14  H   UNL     1       4.222 -16.115   2.244  0.00  0.00    +0.000 HD
ENDROOT
BRANCH   5  15
ATOM     15  C   UNL     1       2.789 -14.981   4.230  0.00  0.00    +0.000 C 
ATOM     16  H   UNL     1       2.109 -14.274   4.716  0.00  0.00    +0.000 HD
ATOM     17  H   UNL     1       3.499 -15.335   4.986  0.00  0.00    +0.000 HD
ATOM     18  H   UNL     1       2.208 -15.844   3.888  0.00  0.00    +0.000 HD
ENDBRANCH   5  15
BRANCH   1  19
ATOM     19  C   UNL     1       5.560 -12.280  -0.165  0.00  0.00    +0.000 C 
BRANCH  19  20
ATOM     20  C   UNL     1       4.384 -11.686  -0.938  0.00  0.00    +0.000 C 
ATOM     21  H   UNL     1       4.202 -12.223  -1.876  0.00  0.00    +0.000 HD
ATOM     22  H   UNL     1       4.575 -10.635  -1.183  0.00  0.00    +0.000 HD
ATOM     23  H   UNL     1       3.464 -11.681  -0.345  0.00  0.00    +0.000 HD
ENDBRANCH  19  20
BRANCH  19  24
ATOM     24  C   UNL     1       6.291 -13.318  -1.015  0.00  0.00    +0.000 C 
ATOM     25  H   UNL     1       5.894 -13.378  -2.034  0.00  0.00    +0.000 HD
ATOM     26  H   UNL     1       7.369 -13.129  -1.054  0.00  0.00    +0.000 HD
ATOM     27  H   UNL     1       6.147 -14.323  -0.599  0.00  0.00    +0.000 HD
ENDBRANCH  19  24
BRANCH  19  28
ATOM     28  O   UNL     1       6.488 -11.234   0.126  0.00  0.00    +0.000 OA
ATOM     29  H   UNL     1       7.312 -11.642   0.444  0.00  0.00    +0.000 HD
ENDBRANCH  19  28
ENDBRANCH   1  19
TORSDOF 5
ENDMDL
MODEL 5
REMARK VINA RESULT:    -4.853     18.566     19.299
REMARK INTER + INTRA:          -5.913
REMARK INTER:                  -5.705
REMARK INTRA:                  -0.209
REMARK UNBOUND:                -0.209
REMARK  Name = 17100
REMARK  5 active torsions:
REMARK  status: ('A' for Active; 'I' for Inactive)
REMARK    1  A    between atoms: O_1  and  C_3
REMARK    2  A    between atoms: C_2  and  C_3
REMARK    3  A    between atoms: C_3  and  C_9
REMARK    4  A    between atoms: C_3  and  C_10
REMARK    5  A    between atoms: C_7  and  C_11
REMARK                            x       y       z     vdW  Elec       q    Type
REMARK                         _______ _______ _______ _____ _____    ______ ____
ROOT
ATOM      1  C   UNL     1       1.592  -6.301  16.470  0.00  0.00    +0.000 C 
ATOM      2  C   UNL     1       0.545  -5.218  16.183  0.00  0.00    +0.000 C 
ATOM      3  C   UNL     1       2.856  -5.670  17.076  0.00  0.00    +0.000 C 
ATOM      4  C   UNL     1       1.091  -4.163  15.215  0.00  0.00    +0.000 C 
ATOM      5  C   UNL     1       2.504  -3.734  15.519  0.00  0.00    +0.000 C 
ATOM      6  C   UNL     1       3.286  -4.416  16.373  0.00  0.00    +0.000 C 
ATOM      7  H   UNL     1       1.866  -6.762  15.509  0.00  0.00    +0.000 HD
ATOM      8  H   UNL     1       0.241  -4.725  17.115  0.00  0.00    +0.000 HD
ATOM      9  H   UNL     1      -0.360  -5.630  15.727  0.00  0.00    +0.000 HD
ATOM     10  H   UNL     1       3.686  -6.383  17.012  0.00  0.00    +0.000 HD
ATOM     11  H   UNL     1       2.722  -5.425  18.136  0.00  0.00    +0.000 HD
ATOM     12  H   UNL     1       0.423  -3.293  15.241  0.00  0.00    +0.000 HD
ATOM     13  H   UNL     1       1.062  -4.560  14.192  0.00  0.00    +0.000 HD
ATOM     14  H   UNL     1       4.293  -4.064  16.583  0.00  0.00    +0.000 HD
ENDROOT
BRANCH   5  15
ATOM     15  C   UNL     1       2.987  -2.503  14.811  0.00  0.00    +0.000 C 
ATOM     16  H   UNL     1       3.448  -1.811  15.524  0.00  0.00    +0.000 HD
ATOM     17  H   UNL     1       2.173  -1.969  14.308  0.00  0.00    +0.000 HD
ATOM     18  H   UNL     1       3.731  -2.767  14.052  0.00  0.00    +0.000 HD
ENDBRANCH   5  15
BRANCH   1  19
ATOM     19  C   UNL     1       1.030  -7.381  17.391  0.00  0.00    +0.000 C 
BRANCH  19  20
ATOM     20  C   UNL     1      -0.472  -7.191  17.602  0.00  0.00    +0.000 C 
ATOM     21  H   UNL     1      -0.752  -6.132  17.596  0.00  0.00    +0.000 HD
ATOM     22  H   UNL     1      -0.784  -7.617  18.563  0.00  0.00    +0.000 HD
ATOM     23  H   UNL     1      -1.062  -7.721  16.847  0.00  0.00    +0.000 HD
ENDBRANCH  19  20
BRANCH  19  24
ATOM     24  C   UNL     1       1.764  -7.380  18.732  0.00  0.00    +0.000 C 
ATOM     25  H   UNL     1       2.282  -8.325  18.926  0.00  0.00    +0.000 HD
ATOM     26  H   UNL     1       2.475  -6.551  18.808  0.00  0.00    +0.000 HD
ATOM     27  H   UNL     1       1.049  -7.279  19.558  0.00  0.00    +0.000 HD
ENDBRANCH  19  24
BRANCH  19  28
ATOM     28  O   UNL     1       1.247  -8.655  16.785  0.00  0.00    +0.000 OA
ATOM     29  H   UNL     1       0.482  -8.852  16.217  0.00  0.00    +0.000 HD
ENDBRANCH  19  28
ENDBRANCH   1  19
TORSDOF 5
ENDMDL
MODEL 6
REMARK VINA RESULT:    -4.839     23.361     24.623
REMARK INTER + INTRA:          -5.896
REMARK INTER:                  -5.692
REMARK INTRA:                  -0.204
REMARK UNBOUND:                -0.209
REMARK  Name = 17100
REMARK  5 active torsions:
REMARK  status: ('A' for Active; 'I' for Inactive)
REMARK    1  A    between atoms: O_1  and  C_3
REMARK    2  A    between atoms: C_2  and  C_3
REMARK    3  A    between atoms: C_3  and  C_9
REMARK    4  A    between atoms: C_3  and  C_10
REMARK    5  A    between atoms: C_7  and  C_11
REMARK                            x       y       z     vdW  Elec       q    Type
REMARK                         _______ _______ _______ _____ _____    ______ ____
ROOT
ATOM      1  C   UNL     1       6.482  13.352  -0.113  0.00  0.00    +0.000 C 
ATOM      2  C   UNL     1       6.288  11.882   0.273  0.00  0.00    +0.000 C 
ATOM      3  C   UNL     1       7.302  14.080   0.964  0.00  0.00    +0.000 C 
ATOM      4  C   UNL     1       5.569  11.754   1.620  0.00  0.00    +0.000 C 
ATOM      5  C   UNL     1       6.072  12.712   2.670  0.00  0.00    +0.000 C 
ATOM      6  C   UNL     1       6.867  13.751   2.361  0.00  0.00    +0.000 C 
ATOM      7  H   UNL     1       5.487  13.819  -0.160  0.00  0.00    +0.000 HD
ATOM      8  H   UNL     1       7.258  11.372   0.335  0.00  0.00    +0.000 HD
ATOM      9  H   UNL     1       5.686  11.338  -0.461  0.00  0.00    +0.000 HD
ATOM     10  H   UNL     1       7.196  15.163   0.834  0.00  0.00    +0.000 HD
ATOM     11  H   UNL     1       8.372  13.849   0.889  0.00  0.00    +0.000 HD
ATOM     12  H   UNL     1       5.680  10.722   1.973  0.00  0.00    +0.000 HD
ATOM     13  H   UNL     1       4.495  11.931   1.477  0.00  0.00    +0.000 HD
ATOM     14  H   UNL     1       7.227  14.409   3.149  0.00  0.00    +0.000 HD
ENDROOT
BRANCH   5  15
ATOM     15  C   UNL     1       5.632  12.440   4.078  0.00  0.00    +0.000 C 
ATOM     16  H   UNL     1       5.621  13.368   4.658  0.00  0.00    +0.000 HD
ATOM     17  H   UNL     1       6.298  11.735   4.590  0.00  0.00    +0.000 HD
ATOM     18  H   UNL     1       4.625  12.011   4.086  0.00  0.00    +0.000 HD
ENDBRANCH   5  15
BRANCH   1  19
ATOM     19  C   UNL     1       7.150  13.480  -1.480  0.00  0.00    +0.000 C 
BRANCH  19  20
ATOM     20  C   UNL     1       8.069  12.289  -1.752  0.00  0.00    +0.000 C 
ATOM     21  H   UNL     1       8.097  12.033  -2.817  0.00  0.00    +0.000 HD
ATOM     22  H   UNL     1       7.729  11.405  -1.201  0.00  0.00    +0.000 HD
ATOM     23  H   UNL     1       9.090  12.471  -1.401  0.00  0.00    +0.000 HD
ENDBRANCH  19  20
BRANCH  19  24
ATOM     24  C   UNL     1       7.928  14.791  -1.580  0.00  0.00    +0.000 C 
ATOM     25  H   UNL     1       7.296  15.667  -1.401  0.00  0.00    +0.000 HD
ATOM     26  H   UNL     1       8.783  14.812  -0.896  0.00  0.00    +0.000 HD
ATOM     27  H   UNL     1       8.315  14.929  -2.598  0.00  0.00    +0.000 HD
ENDBRANCH  19  24
BRANCH  19  28
ATOM     28  O   UNL     1       6.133  13.507  -2.483  0.00  0.00    +0.000 OA
ATOM     29  H   UNL     1       5.703  14.378  -2.451  0.00  0.00    +0.000 HD
ENDBRANCH  19  28
ENDBRANCH   1  19
TORSDOF 5
ENDMDL
MODEL 7
REMARK VINA RESULT:    -4.831      8.177      8.759
REMARK INTER + INTRA:          -5.887
REMARK INTER:                  -5.685
REMARK INTRA:                  -0.203
REMARK UNBOUND:                -0.209
REMARK  Name = 17100
REMARK  5 active torsions:
REMARK  status: ('A' for Active; 'I' for Inactive)
REMARK    1  A    between atoms: O_1  and  C_3
REMARK    2  A    between atoms: C_2  and  C_3
REMARK    3  A    between atoms: C_3  and  C_9
REMARK    4  A    between atoms: C_3  and  C_10
REMARK    5  A    between atoms: C_7  and  C_11
REMARK                            x       y       z     vdW  Elec       q    Type
REMARK                         _______ _______ _______ _____ _____    ______ ____
ROOT
ATOM      1  C   UNL     1       6.538  -3.215  -0.437  0.00  0.00    +0.000 C 
ATOM      2  C   UNL     1       6.522  -2.947  -1.946  0.00  0.00    +0.000 C 
ATOM      3  C   UNL     1       7.156  -2.021   0.307  0.00  0.00    +0.000 C 
ATOM      4  C   UNL     1       7.937  -2.703  -2.480  0.00  0.00    +0.000 C 
ATOM      5  C   UNL     1       8.771  -1.807  -1.600  0.00  0.00    +0.000 C 
ATOM      6  C   UNL     1       8.399  -1.495  -0.347  0.00  0.00    +0.000 C 
ATOM      7  H   UNL     1       7.175  -4.095  -0.262  0.00  0.00    +0.000 HD
ATOM      8  H   UNL     1       5.898  -2.073  -2.172  0.00  0.00    +0.000 HD
ATOM      9  H   UNL     1       6.110  -3.789  -2.511  0.00  0.00    +0.000 HD
ATOM     10  H   UNL     1       7.425  -2.325   1.326  0.00  0.00    +0.000 HD
ATOM     11  H   UNL     1       6.451  -1.186   0.396  0.00  0.00    +0.000 HD
ATOM     12  H   UNL     1       7.857  -2.270  -3.484  0.00  0.00    +0.000 HD
ATOM     13  H   UNL     1       8.456  -3.664  -2.586  0.00  0.00    +0.000 HD
ATOM     14  H   UNL     1       9.017  -0.828   0.251  0.00  0.00    +0.000 HD
ENDROOT
BRANCH   5  15
ATOM     15  C   UNL     1      10.042  -1.285  -2.204  0.00  0.00    +0.000 C 
ATOM     16  H   UNL     1      10.338  -1.905  -3.057  0.00  0.00    +0.000 HD
ATOM     17  H   UNL     1      10.871  -1.286  -1.487  0.00  0.00    +0.000 HD
ATOM     18  H   UNL     1       9.904  -0.256  -2.552  0.00  0.00    +0.000 HD
ENDBRANCH   5  15
BRANCH   1  19
ATOM     19  C   UNL     1       5.134  -3.512   0.085  0.00  0.00    +0.000 C 
BRANCH  19  20
ATOM     20  C   UNL     1       4.091  -2.660  -0.638  0.00  0.00    +0.000 C 
ATOM     21  H   UNL     1       3.406  -2.175   0.065  0.00  0.00    +0.000 HD
ATOM     22  H   UNL     1       3.495  -3.278  -1.320  0.00  0.00    +0.000 HD
ATOM     23  H   UNL     1       4.554  -1.896  -1.271  0.00  0.00    +0.000 HD
ENDBRANCH  19  20
BRANCH  19  24
ATOM     24  C   UNL     1       5.061  -3.282   1.594  0.00  0.00    +0.000 C 
ATOM     25  H   UNL     1       4.844  -4.202   2.147  0.00  0.00    +0.000 HD
ATOM     26  H   UNL     1       5.979  -2.830   1.984  0.00  0.00    +0.000 HD
ATOM     27  H   UNL     1       4.231  -2.607   1.838  0.00  0.00    +0.000 HD
ENDBRANCH  19  24
BRANCH  19  28
ATOM     28  O   UNL     1       4.841  -4.889  -0.153  0.00  0.00    +0.000 OA
ATOM     29  H   UNL     1       3.899  -5.034   0.041  0.00  0.00    +0.000 HD
ENDBRANCH  19  28
ENDBRANCH   1  19
TORSDOF 5
ENDMDL
MODEL 8
REMARK VINA RESULT:    -4.828     17.943     19.382
REMARK INTER + INTRA:          -5.884
REMARK INTER:                  -5.705
REMARK INTRA:                  -0.178
REMARK UNBOUND:                -0.209
REMARK  Name = 17100
REMARK  5 active torsions:
REMARK  status: ('A' for Active; 'I' for Inactive)
REMARK    1  A    between atoms: O_1  and  C_3
REMARK    2  A    between atoms: C_2  and  C_3
REMARK    3  A    between atoms: C_3  and  C_9
REMARK    4  A    between atoms: C_3  and  C_10
REMARK    5  A    between atoms: C_7  and  C_11
REMARK                            x       y       z     vdW  Elec       q    Type
REMARK                         _______ _______ _______ _____ _____    ______ ____
ROOT
ATOM      1  C   UNL     1       1.437  -5.440  16.268  0.00  0.00    +0.000 C 
ATOM      2  C   UNL     1      -0.080  -5.638  16.175  0.00  0.00    +0.000 C 
ATOM      3  C   UNL     1       2.166  -6.743  15.905  0.00  0.00    +0.000 C 
ATOM      4  C   UNL     1      -0.552  -6.754  17.114  0.00  0.00    +0.000 C 
ATOM      5  C   UNL     1       0.335  -7.974  17.100  0.00  0.00    +0.000 C 
ATOM      6  C   UNL     1       1.555  -7.959  16.537  0.00  0.00    +0.000 C 
ATOM      7  H   UNL     1       1.676  -5.193  17.313  0.00  0.00    +0.000 HD
ATOM      8  H   UNL     1      -0.369  -5.890  15.147  0.00  0.00    +0.000 HD
ATOM      9  H   UNL     1      -0.633  -4.735  16.452  0.00  0.00    +0.000 HD
ATOM     10  H   UNL     1       3.207  -6.686  16.243  0.00  0.00    +0.000 HD
ATOM     11  H   UNL     1       2.187  -6.910  14.821  0.00  0.00    +0.000 HD
ATOM     12  H   UNL     1      -1.574  -7.033  16.832  0.00  0.00    +0.000 HD
ATOM     13  H   UNL     1      -0.595  -6.369  18.141  0.00  0.00    +0.000 HD
ATOM     14  H   UNL     1       2.157  -8.864  16.528  0.00  0.00    +0.000 HD
ENDROOT
BRANCH   5  15
ATOM     15  C   UNL     1      -0.224  -9.203  17.753  0.00  0.00    +0.000 C 
ATOM     16  H   UNL     1       0.589  -9.857  18.089  0.00  0.00    +0.000 HD
ATOM     17  H   UNL     1      -0.857  -9.782  17.071  0.00  0.00    +0.000 HD
ATOM     18  H   UNL     1      -0.832  -8.930  18.621  0.00  0.00    +0.000 HD
ENDBRANCH   5  15
BRANCH   1  19
ATOM     19  C   UNL     1       1.899  -4.293  15.373  0.00  0.00    +0.000 C 
BRANCH  19  20
ATOM     20  C   UNL     1       2.374  -4.815  14.018  0.00  0.00    +0.000 C 
ATOM     21  H   UNL     1       3.337  -5.330  14.097  0.00  0.00    +0.000 HD
ATOM     22  H   UNL     1       2.490  -3.990  13.305  0.00  0.00    +0.000 HD
ATOM     23  H   UNL     1       1.644  -5.490  13.560  0.00  0.00    +0.000 HD
ENDBRANCH  19  20
BRANCH  19  24
ATOM     24  C   UNL     1       3.005  -3.489  16.056  0.00  0.00    +0.000 C 
ATOM     25  H   UNL     1       3.896  -3.386  15.427  0.00  0.00    +0.000 HD
ATOM     26  H   UNL     1       2.659  -2.497  16.364  0.00  0.00    +0.000 HD
ATOM     27  H   UNL     1       3.356  -4.010  16.955  0.00  0.00    +0.000 HD
ENDBRANCH  19  24
BRANCH  19  28
ATOM     28  O   UNL     1       0.797  -3.409  15.159  0.00  0.00    +0.000 OA
ATOM     29  H   UNL     1       0.310  -3.720  14.376  0.00  0.00    +0.000 HD
ENDBRANCH  19  28
ENDBRANCH   1  19
TORSDOF 5
ENDMDL
MODEL 9
REMARK VINA RESULT:    -4.733     21.328     23.125
REMARK INTER + INTRA:          -5.771
REMARK INTER:                  -5.599
REMARK INTRA:                  -0.172
REMARK UNBOUND:                -0.209
REMARK  Name = 17100
REMARK  5 active torsions:
REMARK  status: ('A' for Active; 'I' for Inactive)
REMARK    1  A    between atoms: O_1  and  C_3
REMARK    2  A    between atoms: C_2  and  C_3
REMARK    3  A    between atoms: C_3  and  C_9
REMARK    4  A    between atoms: C_3  and  C_10
REMARK    5  A    between atoms: C_7  and  C_11
REMARK                            x       y       z     vdW  Elec       q    Type
REMARK                         _______ _______ _______ _____ _____    ______ ____
ROOT
ATOM      1  C   UNL     1      16.030  10.298   2.568  0.00  0.00    +0.000 C 
ATOM      2  C   UNL     1      14.641  10.610   1.999  0.00  0.00    +0.000 C 
ATOM      3  C   UNL     1      15.910   9.783   4.010  0.00  0.00    +0.000 C 
ATOM      4  C   UNL     1      13.920  11.663   2.848  0.00  0.00    +0.000 C 
ATOM      5  C   UNL     1      14.056  11.442   4.333  0.00  0.00    +0.000 C 
ATOM      6  C   UNL     1      14.950  10.578   4.845  0.00  0.00    +0.000 C 
ATOM      7  H   UNL     1      16.601  11.238   2.585  0.00  0.00    +0.000 HD
ATOM      8  H   UNL     1      14.030   9.699   1.964  0.00  0.00    +0.000 HD
ATOM      9  H   UNL     1      14.690  11.003   0.979  0.00  0.00    +0.000 HD
ATOM     10  H   UNL     1      16.890   9.834   4.499  0.00  0.00    +0.000 HD
ATOM     11  H   UNL     1      15.587   8.735   4.045  0.00  0.00    +0.000 HD
ATOM     12  H   UNL     1      12.860  11.665   2.567  0.00  0.00    +0.000 HD
ATOM     13  H   UNL     1      14.318  12.657   2.608  0.00  0.00    +0.000 HD
ATOM     14  H   UNL     1      15.004  10.431   5.920  0.00  0.00    +0.000 HD
ENDROOT
BRANCH   5  15
ATOM     15  C   UNL     1      13.138  12.244   5.207  0.00  0.00    +0.000 C 
ATOM     16  H   UNL     1      12.127  11.823   5.183  0.00  0.00    +0.000 HD
ATOM     17  H   UNL     1      13.071  13.290   4.886  0.00  0.00    +0.000 HD
ATOM     18  H   UNL     1      13.494  12.236   6.243  0.00  0.00    +0.000 HD
ENDBRANCH   5  15
BRANCH   1  19
ATOM     19  C   UNL     1      16.769   9.289   1.692  0.00  0.00    +0.000 C 
BRANCH  19  20
ATOM     20  C   UNL     1      16.961   7.963   2.428  0.00  0.00    +0.000 C 
ATOM     21  H   UNL     1      16.461   7.137   1.913  0.00  0.00    +0.000 HD
ATOM     22  H   UNL     1      16.554   8.024   3.444  0.00  0.00    +0.000 HD
ATOM     23  H   UNL     1      18.020   7.715   2.557  0.00  0.00    +0.000 HD
ENDBRANCH  19  20
BRANCH  19  24
ATOM     24  C   UNL     1      18.117   9.852   1.242  0.00  0.00    +0.000 C 
ATOM     25  H   UNL     1      18.061  10.339   0.263  0.00  0.00    +0.000 HD
ATOM     26  H   UNL     1      18.532  10.552   1.974  0.00  0.00    +0.000 HD
ATOM     27  H   UNL     1      18.845   9.041   1.110  0.00  0.00    +0.000 HD
ENDBRANCH  19  24
BRANCH  19  28
ATOM     28  O   UNL     1      15.992   9.048   0.518  0.00  0.00    +0.000 OA
ATOM     29  H   UNL     1      16.569   9.172  -0.255  0.00  0.00    +0.000 HD
ENDBRANCH  19  28
ENDBRANCH   1  19
TORSDOF 5
ENDMDL
MODEL 10
REMARK VINA RESULT:    -4.628      8.123      8.777
REMARK INTER + INTRA:          -5.649
REMARK INTER:                  -5.440
REMARK INTRA:                  -0.209
REMARK UNBOUND:                -0.209
REMARK  Name = 17100
REMARK  5 active torsions:
REMARK  status: ('A' for Active; 'I' for Inactive)
REMARK    1  A    between atoms: O_1  and  C_3
REMARK    2  A    between atoms: C_2  and  C_3
REMARK    3  A    between atoms: C_3  and  C_9
REMARK    4  A    between atoms: C_3  and  C_10
REMARK    5  A    between atoms: C_7  and  C_11
REMARK                            x       y       z     vdW  Elec       q    Type
REMARK                         _______ _______ _______ _____ _____    ______ ____
ROOT
ATOM      1  C   UNL     1       7.553  -3.200  -1.132  0.00  0.00    +0.000 C 
ATOM      2  C   UNL     1       8.607  -2.621  -2.082  0.00  0.00    +0.000 C 
ATOM      3  C   UNL     1       7.424  -2.317   0.119  0.00  0.00    +0.000 C 
ATOM      4  C   UNL     1       9.974  -2.522  -1.397  0.00  0.00    +0.000 C 
ATOM      5  C   UNL     1       9.909  -1.992   0.014  0.00  0.00    +0.000 C 
ATOM      6  C   UNL     1       8.747  -1.892   0.682  0.00  0.00    +0.000 C 
ATOM      7  H   UNL     1       7.900  -4.195  -0.816  0.00  0.00    +0.000 HD
ATOM      8  H   UNL     1       8.306  -1.623  -2.424  0.00  0.00    +0.000 HD
ATOM      9  H   UNL     1       8.744  -3.239  -2.975  0.00  0.00    +0.000 HD
ATOM     10  H   UNL     1       6.896  -2.872   0.904  0.00  0.00    +0.000 HD
ATOM     11  H   UNL     1       6.842  -1.409  -0.080  0.00  0.00    +0.000 HD
ATOM     12  H   UNL     1      10.620  -1.879  -2.007  0.00  0.00    +0.000 HD
ATOM     13  H   UNL     1      10.441  -3.515  -1.372  0.00  0.00    +0.000 HD
ATOM     14  H   UNL     1       8.737  -1.485   1.691  0.00  0.00    +0.000 HD
ENDROOT
BRANCH   5  15
ATOM     15  C   UNL     1      11.216  -1.587   0.628  0.00  0.00    +0.000 C 
ATOM     16  H   UNL     1      11.174  -0.543   0.957  0.00  0.00    +0.000 HD
ATOM     17  H   UNL     1      12.051  -1.682  -0.076  0.00  0.00    +0.000 HD
ATOM     18  H   UNL     1      11.440  -2.216   1.496  0.00  0.00    +0.000 HD
ENDBRANCH   5  15
BRANCH   1  19
ATOM     19  C   UNL     1       6.204  -3.349  -1.832  0.00  0.00    +0.000 C 
BRANCH  19  20
ATOM     20  C   UNL     1       6.282  -2.861  -3.279  0.00  0.00    +0.000 C 
ATOM     21  H   UNL     1       7.312  -2.858  -3.650  0.00  0.00    +0.000 HD
ATOM     22  H   UNL     1       5.890  -1.841  -3.364  0.00  0.00    +0.000 HD
ATOM     23  H   UNL     1       5.662  -3.465  -3.949  0.00  0.00    +0.000 HD
ENDBRANCH  19  20
BRANCH  19  24
ATOM     24  C   UNL     1       5.116  -2.594  -1.070  0.00  0.00    +0.000 C 
ATOM     25  H   UNL     1       4.403  -3.267  -0.583  0.00  0.00    +0.000 HD
ATOM     26  H   UNL     1       5.537  -1.908  -0.328  0.00  0.00    +0.000 HD
ATOM     27  H   UNL     1       4.508  -1.998  -1.763  0.00  0.00    +0.000 HD
ENDBRANCH  19  24
BRANCH  19  28
ATOM     28  O   UNL     1       5.843  -4.731  -1.838  0.00  0.00    +0.000 OA
ATOM     29  H   UNL     1       6.048  -5.099  -0.961  0.00  0.00    +0.000 HD
ENDBRANCH  19  28
ENDBRANCH   1  19
TORSDOF 5
ENDMDL
