MODEL 1
REMARK VINA RESULT:    -4.227      0.000      0.000
REMARK INTER + INTRA:          -4.695
REMARK INTER:                  -4.641
REMARK INTRA:                  -0.053
REMARK UNBOUND:                -0.097
REMARK  Name = 12756
REMARK  2 active torsions:
REMARK  status: ('A' for Active; 'I' for Inactive)
REMARK    1  A    between atoms: C_3  and  C_6
REMARK    2  A    between atoms: C_6  and  C_8
REMARK                            x       y       z     vdW  Elec       q    Type
REMARK                         _______ _______ _______ _____ _____    ______ ____
ROOT
ATOM      1  O   UNL     1       2.325  -5.158  14.432  0.00  0.00    +0.000 OA
ATOM      2  O   UNL     1       2.171  -7.429  14.141  0.00  0.00    +0.000 OA
ATOM      3  C   UNL     1       1.454  -4.137  14.940  0.00  0.00    +0.000 C 
ATOM      4  C   UNL     1       0.548  -4.863  15.908  0.00  0.00    +0.000 C 
ATOM      5  C   UNL     1       0.394  -6.213  15.251  0.00  0.00    +0.000 C 
ATOM      6  C   UNL     1       1.714  -6.377  14.560  0.00  0.00    +0.000 C 
ATOM      7  H   UNL     1       0.880  -3.737  14.095  0.00  0.00    +0.000 HD
ATOM      8  H   UNL     1      -0.404  -4.350  16.072  0.00  0.00    +0.000 HD
ATOM      9  H   UNL     1       1.037  -4.988  16.883  0.00  0.00    +0.000 HD
ATOM     10  H   UNL     1       0.233  -7.003  15.988  0.00  0.00    +0.000 HD
ATOM     11  H   UNL     1      -0.404  -6.213  14.503  0.00  0.00    +0.000 HD
ENDROOT
BRANCH   3  12
ATOM     12  C   UNL     1       2.274  -3.039  15.592  0.00  0.00    +0.000 C 
ATOM     13  H   UNL     1       1.674  -2.125  15.674  0.00  0.00    +0.000 HD
ATOM     14  H   UNL     1       2.567  -3.337  16.607  0.00  0.00    +0.000 HD
BRANCH  12  15
ATOM     15  C   UNL     1       3.537  -2.737  14.804  0.00  0.00    +0.000 C 
ATOM     16  H   UNL     1       3.463  -3.100  13.775  0.00  0.00    +0.000 HD
ATOM     17  H   UNL     1       3.735  -1.660  14.775  0.00  0.00    +0.000 HD
ATOM     18  H   UNL     1       4.399  -3.226  15.271  0.00  0.00    +0.000 HD
ENDBRANCH  12  15
ENDBRANCH   3  12
TORSDOF 2
ENDMDL
MODEL 2
REMARK VINA RESULT:    -4.181     14.843     16.104
REMARK INTER + INTRA:          -4.644
REMARK INTER:                  -4.578
REMARK INTRA:                  -0.066
REMARK UNBOUND:                -0.097
REMARK  Name = 12756
REMARK  2 active torsions:
REMARK  status: ('A' for Active; 'I' for Inactive)
REMARK    1  A    between atoms: C_3  and  C_6
REMARK    2  A    between atoms: C_6  and  C_8
REMARK                            x       y       z     vdW  Elec       q    Type
REMARK                         _______ _______ _______ _____ _____    ______ ____
ROOT
ATOM      1  O   UNL     1       4.320 -12.813   1.230  0.00  0.00    +0.000 OA
ATOM      2  O   UNL     1       5.335 -13.352  -0.756  0.00  0.00    +0.000 OA
ATOM      3  C   UNL     1       3.528 -11.713   1.702  0.00  0.00    +0.000 C 
ATOM      4  C   UNL     1       2.866 -11.166   0.457  0.00  0.00    +0.000 C 
ATOM      5  C   UNL     1       3.928 -11.386  -0.593  0.00  0.00    +0.000 C 
ATOM      6  C   UNL     1       4.608 -12.627  -0.095  0.00  0.00    +0.000 C 
ATOM      7  H   UNL     1       4.209 -10.972   2.138  0.00  0.00    +0.000 HD
ATOM      8  H   UNL     1       2.565 -10.119   0.555  0.00  0.00    +0.000 HD
ATOM      9  H   UNL     1       1.975 -11.751   0.198  0.00  0.00    +0.000 HD
ATOM     10  H   UNL     1       3.491 -11.544  -1.581  0.00  0.00    +0.000 HD
ATOM     11  H   UNL     1       4.653 -10.567  -0.617  0.00  0.00    +0.000 HD
ENDROOT
BRANCH   3  12
ATOM     12  C   UNL     1       2.538 -12.201   2.742  0.00  0.00    +0.000 C 
ATOM     13  H   UNL     1       2.449 -11.462   3.548  0.00  0.00    +0.000 HD
ATOM     14  H   UNL     1       1.545 -12.324   2.293  0.00  0.00    +0.000 HD
BRANCH  12  15
ATOM     15  C   UNL     1       2.958 -13.536   3.336  0.00  0.00    +0.000 C 
ATOM     16  H   UNL     1       3.469 -14.159   2.596  0.00  0.00    +0.000 HD
ATOM     17  H   UNL     1       3.628 -13.394   4.189  0.00  0.00    +0.000 HD
ATOM     18  H   UNL     1       2.078 -14.085   3.686  0.00  0.00    +0.000 HD
ENDBRANCH  12  15
ENDBRANCH   3  12
TORSDOF 2
ENDMDL
MODEL 3
REMARK VINA RESULT:    -4.103     15.804     16.391
REMARK INTER + INTRA:          -4.559
REMARK INTER:                  -4.479
REMARK INTRA:                  -0.080
REMARK UNBOUND:                -0.097
REMARK  Name = 12756
REMARK  2 active torsions:
REMARK  status: ('A' for Active; 'I' for Inactive)
REMARK    1  A    between atoms: C_3  and  C_6
REMARK    2  A    between atoms: C_6  and  C_8
REMARK                            x       y       z     vdW  Elec       q    Type
REMARK                         _______ _______ _______ _____ _____    ______ ____
ROOT
ATOM      1  O   UNL     1       5.740  -4.013  -0.582  0.00  0.00    +0.000 OA
ATOM      2  O   UNL     1       4.978  -4.161   1.577  0.00  0.00    +0.000 OA
ATOM      3  C   UNL     1       5.197  -3.539  -1.822  0.00  0.00    +0.000 C 
ATOM      4  C   UNL     1       4.180  -2.498  -1.413  0.00  0.00    +0.000 C 
ATOM      5  C   UNL     1       3.642  -3.066  -0.122  0.00  0.00    +0.000 C 
ATOM      6  C   UNL     1       4.836  -3.791   0.422  0.00  0.00    +0.000 C 
ATOM      7  H   UNL     1       4.708  -4.387  -2.319  0.00  0.00    +0.000 HD
ATOM      8  H   UNL     1       3.406  -2.333  -2.168  0.00  0.00    +0.000 HD
ATOM      9  H   UNL     1       4.665  -1.535  -1.210  0.00  0.00    +0.000 HD
ATOM     10  H   UNL     1       3.315  -2.278   0.560  0.00  0.00    +0.000 HD
ATOM     11  H   UNL     1       2.836  -3.785  -0.298  0.00  0.00    +0.000 HD
ENDROOT
BRANCH   3  12
ATOM     12  C   UNL     1       6.308  -2.984  -2.692  0.00  0.00    +0.000 C 
ATOM     13  H   UNL     1       6.456  -3.629  -3.566  0.00  0.00    +0.000 HD
ATOM     14  H   UNL     1       6.040  -1.985  -3.058  0.00  0.00    +0.000 HD
BRANCH  12  15
ATOM     15  C   UNL     1       7.618  -2.872  -1.930  0.00  0.00    +0.000 C 
ATOM     16  H   UNL     1       7.618  -2.007  -1.259  0.00  0.00    +0.000 HD
ATOM     17  H   UNL     1       7.804  -3.771  -1.333  0.00  0.00    +0.000 HD
ATOM     18  H   UNL     1       8.452  -2.753  -2.629  0.00  0.00    +0.000 HD
ENDBRANCH  12  15
ENDBRANCH   3  12
TORSDOF 2
ENDMDL
MODEL 4
REMARK VINA RESULT:    -4.045     14.664     15.389
REMARK INTER + INTRA:          -4.496
REMARK INTER:                  -4.395
REMARK INTRA:                  -0.101
REMARK UNBOUND:                -0.097
REMARK  Name = 12756
REMARK  2 active torsions:
REMARK  status: ('A' for Active; 'I' for Inactive)
REMARK    1  A    between atoms: C_3  and  C_6
REMARK    2  A    between atoms: C_6  and  C_8
REMARK                            x       y       z     vdW  Elec       q    Type
REMARK                         _______ _______ _______ _____ _____    ______ ____
ROOT
ATOM      1  O   UNL     1       4.310 -13.360   2.423  0.00  0.00    +0.000 OA
ATOM      2  O   UNL     1       4.888 -12.065   0.620  0.00  0.00    +0.000 OA
ATOM      3  C   UNL     1       3.265 -13.326   3.407  0.00  0.00    +0.000 C 
ATOM      4  C   UNL     1       2.124 -12.614   2.718  0.00  0.00    +0.000 C 
ATOM      5  C   UNL     1       2.848 -11.615   1.848  0.00  0.00    +0.000 C 
ATOM      6  C   UNL     1       4.117 -12.345   1.525  0.00  0.00    +0.000 C 
ATOM      7  H   UNL     1       3.630 -12.742   4.261  0.00  0.00    +0.000 HD
ATOM      8  H   UNL     1       1.423 -12.149   3.418  0.00  0.00    +0.000 HD
ATOM      9  H   UNL     1       1.558 -13.305   2.081  0.00  0.00    +0.000 HD
ATOM     10  H   UNL     1       2.283 -11.386   0.942  0.00  0.00    +0.000 HD
ATOM     11  H   UNL     1       3.091 -10.699   2.394  0.00  0.00    +0.000 HD
ENDROOT
BRANCH   3  12
ATOM     12  C   UNL     1       2.919 -14.738   3.838  0.00  0.00    +0.000 C 
ATOM     13  H   UNL     1       3.837 -15.306   4.030  0.00  0.00    +0.000 HD
ATOM     14  H   UNL     1       2.340 -14.719   4.770  0.00  0.00    +0.000 HD
BRANCH  12  15
ATOM     15  C   UNL     1       2.097 -15.463   2.786  0.00  0.00    +0.000 C 
ATOM     16  H   UNL     1       1.769 -16.445   3.141  0.00  0.00    +0.000 HD
ATOM     17  H   UNL     1       1.210 -14.883   2.510  0.00  0.00    +0.000 HD
ATOM     18  H   UNL     1       2.694 -15.617   1.881  0.00  0.00    +0.000 HD
ENDBRANCH  12  15
ENDBRANCH   3  12
TORSDOF 2
ENDMDL
MODEL 5
REMARK VINA RESULT:    -3.884     21.575     22.401
REMARK INTER + INTRA:          -4.321
REMARK INTER:                  -4.253
REMARK INTRA:                  -0.068
REMARK UNBOUND:                -0.097
REMARK  Name = 12756
REMARK  2 active torsions:
REMARK  status: ('A' for Active; 'I' for Inactive)
REMARK    1  A    between atoms: C_3  and  C_6
REMARK    2  A    between atoms: C_6  and  C_8
REMARK                            x       y       z     vdW  Elec       q    Type
REMARK                         _______ _______ _______ _____ _____    ______ ____
ROOT
ATOM      1  O   UNL     1     -18.858  -1.499   9.064  0.00  0.00    +0.000 OA
ATOM      2  O   UNL     1     -16.620  -1.173   8.678  0.00  0.00    +0.000 OA
ATOM      3  C   UNL     1     -20.049  -1.430   8.265  0.00  0.00    +0.000 C 
ATOM      4  C   UNL     1     -19.576  -1.724   6.860  0.00  0.00    +0.000 C 
ATOM      5  C   UNL     1     -18.203  -1.094   6.845  0.00  0.00    +0.000 C 
ATOM      6  C   UNL     1     -17.768  -1.262   8.271  0.00  0.00    +0.000 C 
ATOM      7  H   UNL     1     -20.442  -0.409   8.338  0.00  0.00    +0.000 HD
ATOM      8  H   UNL     1     -20.242  -1.326   6.090  0.00  0.00    +0.000 HD
ATOM      9  H   UNL     1     -19.479  -2.805   6.697  0.00  0.00    +0.000 HD
ATOM     10  H   UNL     1     -17.529  -1.615   6.162  0.00  0.00    +0.000 HD
ATOM     11  H   UNL     1     -18.248  -0.028   6.608  0.00  0.00    +0.000 HD
ENDROOT
BRANCH   3  12
ATOM     12  C   UNL     1     -21.069  -2.429   8.777  0.00  0.00    +0.000 C 
ATOM     13  H   UNL     1     -22.068  -1.976   8.775  0.00  0.00    +0.000 HD
ATOM     14  H   UNL     1     -21.102  -3.308   8.120  0.00  0.00    +0.000 HD
BRANCH  12  15
ATOM     15  C   UNL     1     -20.740  -2.901  10.183  0.00  0.00    +0.000 C 
ATOM     16  H   UNL     1     -21.549  -2.668  10.882  0.00  0.00    +0.000 HD
ATOM     17  H   UNL     1     -20.567  -3.982  10.205  0.00  0.00    +0.000 HD
ATOM     18  H   UNL     1     -19.832  -2.407  10.543  0.00  0.00    +0.000 HD
ENDBRANCH  12  15
ENDBRANCH   3  12
TORSDOF 2
ENDMDL
MODEL 6
REMARK VINA RESULT:    -3.873      1.783      2.207
REMARK INTER + INTRA:          -4.309
REMARK INTER:                  -4.226
REMARK INTRA:                  -0.083
REMARK UNBOUND:                -0.097
REMARK  Name = 12756
REMARK  2 active torsions:
REMARK  status: ('A' for Active; 'I' for Inactive)
REMARK    1  A    between atoms: C_3  and  C_6
REMARK    2  A    between atoms: C_6  and  C_8
REMARK                            x       y       z     vdW  Elec       q    Type
REMARK                         _______ _______ _______ _____ _____    ______ ____
ROOT
ATOM      1  O   UNL     1       1.115  -4.724  16.171  0.00  0.00    +0.000 OA
ATOM      2  O   UNL     1      -0.868  -5.800  16.586  0.00  0.00    +0.000 OA
ATOM      3  C   UNL     1       2.302  -5.029  15.424  0.00  0.00    +0.000 C 
ATOM      4  C   UNL     1       1.832  -5.977  14.344  0.00  0.00    +0.000 C 
ATOM      5  C   UNL     1       0.746  -6.753  15.050  0.00  0.00    +0.000 C 
ATOM      6  C   UNL     1       0.206  -5.734  16.008  0.00  0.00    +0.000 C 
ATOM      7  H   UNL     1       3.005  -5.529  16.102  0.00  0.00    +0.000 HD
ATOM      8  H   UNL     1       2.631  -6.612  13.952  0.00  0.00    +0.000 HD
ATOM      9  H   UNL     1       1.394  -5.426  13.502  0.00  0.00    +0.000 HD
ATOM     10  H   UNL     1      -0.027  -7.089  14.354  0.00  0.00    +0.000 HD
ATOM     11  H   UNL     1       1.150  -7.597  15.616  0.00  0.00    +0.000 HD
ENDROOT
BRANCH   3  12
ATOM     12  C   UNL     1       2.909  -3.751  14.878  0.00  0.00    +0.000 C 
ATOM     13  H   UNL     1       3.782  -3.467  15.477  0.00  0.00    +0.000 HD
ATOM     14  H   UNL     1       3.250  -3.904  13.846  0.00  0.00    +0.000 HD
BRANCH  12  15
ATOM     15  C   UNL     1       1.910  -2.606  14.881  0.00  0.00    +0.000 C 
ATOM     16  H   UNL     1       1.920  -2.065  13.930  0.00  0.00    +0.000 HD
ATOM     17  H   UNL     1       0.893  -2.971  15.058  0.00  0.00    +0.000 HD
ATOM     18  H   UNL     1       2.156  -1.893  15.674  0.00  0.00    +0.000 HD
ENDBRANCH  12  15
ENDBRANCH   3  12
TORSDOF 2
ENDMDL
MODEL 7
REMARK VINA RESULT:    -3.752      2.000      3.690
REMARK INTER + INTRA:          -4.178
REMARK INTER:                  -4.150
REMARK INTRA:                  -0.028
REMARK UNBOUND:                -0.097
REMARK  Name = 12756
REMARK  2 active torsions:
REMARK  status: ('A' for Active; 'I' for Inactive)
REMARK    1  A    between atoms: C_3  and  C_6
REMARK    2  A    between atoms: C_6  and  C_8
REMARK                            x       y       z     vdW  Elec       q    Type
REMARK                         _______ _______ _______ _____ _____    ______ ____
ROOT
ATOM      1  O   UNL     1       1.363  -7.082  15.696  0.00  0.00    +0.000 OA
ATOM      2  O   UNL     1       2.201  -6.142  13.778  0.00  0.00    +0.000 OA
ATOM      3  C   UNL     1       0.640  -6.595  16.836  0.00  0.00    +0.000 C 
ATOM      4  C   UNL     1      -0.104  -5.385  16.319  0.00  0.00    +0.000 C 
ATOM      5  C   UNL     1       0.864  -4.821  15.308  0.00  0.00    +0.000 C 
ATOM      6  C   UNL     1       1.548  -6.058  14.807  0.00  0.00    +0.000 C 
ATOM      7  H   UNL     1       1.374  -6.305  17.598  0.00  0.00    +0.000 HD
ATOM      8  H   UNL     1      -0.368  -4.674  17.108  0.00  0.00    +0.000 HD
ATOM      9  H   UNL     1      -1.029  -5.683  15.808  0.00  0.00    +0.000 HD
ATOM     10  H   UNL     1       0.345  -4.302  14.499  0.00  0.00    +0.000 HD
ATOM     11  H   UNL     1       1.606  -4.167  15.775  0.00  0.00    +0.000 HD
ENDROOT
BRANCH   3  12
ATOM     12  C   UNL     1      -0.275  -7.682  17.367  0.00  0.00    +0.000 C 
ATOM     13  H   UNL     1      -1.321  -7.419  17.167  0.00  0.00    +0.000 HD
ATOM     14  H   UNL     1      -0.068  -8.633  16.861  0.00  0.00    +0.000 HD
BRANCH  12  15
ATOM     15  C   UNL     1      -0.092  -7.891  18.861  0.00  0.00    +0.000 C 
ATOM     16  H   UNL     1       0.058  -6.941  19.383  0.00  0.00    +0.000 HD
ATOM     17  H   UNL     1      -0.963  -8.390  19.298  0.00  0.00    +0.000 HD
ATOM     18  H   UNL     1       0.786  -8.518  19.049  0.00  0.00    +0.000 HD
ENDBRANCH  12  15
ENDBRANCH   3  12
TORSDOF 2
ENDMDL
MODEL 8
REMARK VINA RESULT:    -3.702     15.095     15.825
REMARK INTER + INTRA:          -4.123
REMARK INTER:                  -4.092
REMARK INTRA:                  -0.031
REMARK UNBOUND:                -0.097
REMARK  Name = 12756
REMARK  2 active torsions:
REMARK  status: ('A' for Active; 'I' for Inactive)
REMARK    1  A    between atoms: C_3  and  C_6
REMARK    2  A    between atoms: C_6  and  C_8
REMARK                            x       y       z     vdW  Elec       q    Type
REMARK                         _______ _______ _______ _____ _____    ______ ____
ROOT
ATOM      1  O   UNL     1       6.485  -3.661   0.917  0.00  0.00    +0.000 OA
ATOM      2  O   UNL     1       4.342  -4.456   1.121  0.00  0.00    +0.000 OA
ATOM      3  C   UNL     1       7.227  -2.990  -0.112  0.00  0.00    +0.000 C 
ATOM      4  C   UNL     1       6.177  -2.260  -0.918  0.00  0.00    +0.000 C 
ATOM      5  C   UNL     1       5.004  -3.208  -0.848  0.00  0.00    +0.000 C 
ATOM      6  C   UNL     1       5.194  -3.841   0.498  0.00  0.00    +0.000 C 
ATOM      7  H   UNL     1       7.722  -3.757  -0.721  0.00  0.00    +0.000 HD
ATOM      8  H   UNL     1       6.496  -2.042  -1.942  0.00  0.00    +0.000 HD
ATOM      9  H   UNL     1       5.905  -1.311  -0.439  0.00  0.00    +0.000 HD
ATOM     10  H   UNL     1       4.052  -2.675  -0.903  0.00  0.00    +0.000 HD
ATOM     11  H   UNL     1       5.059  -3.982  -1.619  0.00  0.00    +0.000 HD
ENDROOT
BRANCH   3  12
ATOM     12  C   UNL     1       8.254  -2.066   0.514  0.00  0.00    +0.000 C 
ATOM     13  H   UNL     1       7.826  -1.064   0.638  0.00  0.00    +0.000 HD
ATOM     14  H   UNL     1       8.539  -2.432   1.508  0.00  0.00    +0.000 HD
BRANCH  12  15
ATOM     15  C   UNL     1       9.513  -1.967  -0.332  0.00  0.00    +0.000 C 
ATOM     16  H   UNL     1      10.123  -2.872  -0.247  0.00  0.00    +0.000 HD
ATOM     17  H   UNL     1       9.267  -1.816  -1.388  0.00  0.00    +0.000 HD
ATOM     18  H   UNL     1      10.123  -1.120  -0.003  0.00  0.00    +0.000 HD
ENDBRANCH  12  15
ENDBRANCH   3  12
TORSDOF 2
ENDMDL
MODEL 9
REMARK VINA RESULT:    -3.692     14.393     15.195
REMARK INTER + INTRA:          -4.112
REMARK INTER:                  -4.016
REMARK INTRA:                  -0.097
REMARK UNBOUND:                -0.097
REMARK  Name = 12756
REMARK  2 active torsions:
REMARK  status: ('A' for Active; 'I' for Inactive)
REMARK    1  A    between atoms: C_3  and  C_6
REMARK    2  A    between atoms: C_6  and  C_8
REMARK                            x       y       z     vdW  Elec       q    Type
REMARK                         _______ _______ _______ _____ _____    ______ ____
ROOT
ATOM      1  O   UNL     1       4.225 -13.808   2.242  0.00  0.00    +0.000 OA
ATOM      2  O   UNL     1       3.017 -14.546   4.048  0.00  0.00    +0.000 OA
ATOM      3  C   UNL     1       4.087 -12.740   1.293  0.00  0.00    +0.000 C 
ATOM      4  C   UNL     1       3.298 -11.682   2.031  0.00  0.00    +0.000 C 
ATOM      5  C   UNL     1       2.378 -12.512   2.894  0.00  0.00    +0.000 C 
ATOM      6  C   UNL     1       3.215 -13.727   3.163  0.00  0.00    +0.000 C 
ATOM      7  H   UNL     1       3.517 -13.125   0.438  0.00  0.00    +0.000 HD
ATOM      8  H   UNL     1       2.764 -11.001   1.363  0.00  0.00    +0.000 HD
ATOM      9  H   UNL     1       3.954 -11.082   2.673  0.00  0.00    +0.000 HD
ATOM     10  H   UNL     1       2.123 -11.996   3.822  0.00  0.00    +0.000 HD
ATOM     11  H   UNL     1       1.475 -12.813   2.356  0.00  0.00    +0.000 HD
ENDROOT
BRANCH   3  12
ATOM     12  C   UNL     1       5.457 -12.267   0.849  0.00  0.00    +0.000 C 
ATOM     13  H   UNL     1       5.908 -13.007   0.177  0.00  0.00    +0.000 HD
ATOM     14  H   UNL     1       5.371 -11.324   0.294  0.00  0.00    +0.000 HD
BRANCH  12  15
ATOM     15  C   UNL     1       6.384 -12.037   2.030  0.00  0.00    +0.000 C 
ATOM     16  H   UNL     1       7.065 -11.200   1.848  0.00  0.00    +0.000 HD
ATOM     17  H   UNL     1       5.816 -11.826   2.942  0.00  0.00    +0.000 HD
ATOM     18  H   UNL     1       6.992 -12.930   2.211  0.00  0.00    +0.000 HD
ENDBRANCH  12  15
ENDBRANCH   3  12
TORSDOF 2
ENDMDL
MODEL 10
REMARK VINA RESULT:    -3.641     23.417     23.848
REMARK INTER + INTRA:          -4.057
REMARK INTER:                  -3.990
REMARK INTRA:                  -0.067
REMARK UNBOUND:                -0.097
REMARK  Name = 12756
REMARK  2 active torsions:
REMARK  status: ('A' for Active; 'I' for Inactive)
REMARK    1  A    between atoms: C_3  and  C_6
REMARK    2  A    between atoms: C_6  and  C_8
REMARK                            x       y       z     vdW  Elec       q    Type
REMARK                         _______ _______ _______ _____ _____    ______ ____
ROOT
ATOM      1  O   UNL     1      16.273   9.145   3.434  0.00  0.00    +0.000 OA
ATOM      2  O   UNL     1      17.206   7.134   2.844  0.00  0.00    +0.000 OA
ATOM      3  C   UNL     1      15.930  10.352   2.737  0.00  0.00    +0.000 C 
ATOM      4  C   UNL     1      15.680   9.905   1.314  0.00  0.00    +0.000 C 
ATOM      5  C   UNL     1      16.679   8.785   1.150  0.00  0.00    +0.000 C 
ATOM      6  C   UNL     1      16.755   8.228   2.540  0.00  0.00    +0.000 C 
ATOM      7  H   UNL     1      16.796  11.024   2.787  0.00  0.00    +0.000 HD
ATOM      8  H   UNL     1      15.807  10.708   0.583  0.00  0.00    +0.000 HD
ATOM      9  H   UNL     1      14.665   9.503   1.203  0.00  0.00    +0.000 HD
ATOM     10  H   UNL     1      16.327   8.032   0.441  0.00  0.00    +0.000 HD
ATOM     11  H   UNL     1      17.665   9.158   0.860  0.00  0.00    +0.000 HD
ENDROOT
BRANCH   3  12
ATOM     12  C   UNL     1      14.720  10.995   3.386  0.00  0.00    +0.000 C 
ATOM     13  H   UNL     1      14.216  10.271   4.037  0.00  0.00    +0.000 HD
ATOM     14  H   UNL     1      15.030  11.843   4.010  0.00  0.00    +0.000 HD
BRANCH  12  15
ATOM     15  C   UNL     1      13.731  11.505   2.351  0.00  0.00    +0.000 C 
ATOM     16  H   UNL     1      13.862  12.576   2.167  0.00  0.00    +0.000 HD
ATOM     17  H   UNL     1      13.846  10.976   1.401  0.00  0.00    +0.000 HD
ATOM     18  H   UNL     1      12.705  11.350   2.702  0.00  0.00    +0.000 HD
ENDBRANCH  12  15
ENDBRANCH   3  12
TORSDOF 2
ENDMDL
