MODEL 1
REMARK VINA RESULT:    -4.687      0.000      0.000
REMARK INTER + INTRA:          -7.268
REMARK INTER:                  -6.735
REMARK INTRA:                  -0.533
REMARK UNBOUND:                -0.800
REMARK  Name = 443157
REMARK  8 active torsions:
REMARK  status: ('A' for Active; 'I' for Inactive)
REMARK    1  A    between atoms: C_2  and  C_3
REMARK    2  A    between atoms: C_2  and  C_5
REMARK    3  A    between atoms: C_2  and  C_6
REMARK    4  A    between atoms: C_3  and  C_4
REMARK    5  A    between atoms: C_4  and  C_7
REMARK    6  A    between atoms: C_5  and  C_9
REMARK    7  A    between atoms: C_8  and  C_10
REMARK    8  A    between atoms: C_8  and  C_11
REMARK                            x       y       z     vdW  Elec       q    Type
REMARK                         _______ _______ _______ _____ _____    ______ ____
ROOT
ATOM      1  C   UNL     1       0.399  -4.844  15.943  0.00  0.00    +0.000 C 
ATOM      2  H   UNL     1       0.321  -4.433  16.959  0.00  0.00    +0.000 HD
ATOM      3  H   UNL     1      -0.186  -4.180  15.294  0.00  0.00    +0.000 HD
ENDROOT
BRANCH   1   4
ATOM      4  C   UNL     1      -0.217  -6.246  15.915  0.00  0.00    +0.000 C 
ATOM      5  H   UNL     1      -1.138  -6.255  15.322  0.00  0.00    +0.000 HD
ATOM      6  H   UNL     1       0.460  -6.952  15.418  0.00  0.00    +0.000 HD
BRANCH   4   7
ATOM      7  C   UNL     1      -0.446  -6.766  17.307  0.00  0.00    +0.000 C 
ATOM      8  C   UNL     1       0.269  -7.700  17.963  0.00  0.00    +0.000 C 
ATOM      9  H   UNL     1      -1.299  -6.329  17.822  0.00  0.00    +0.000 HD
BRANCH   8  10
ATOM     10  C   UNL     1      -0.012  -8.177  19.360  0.00  0.00    +0.000 C 
ATOM     11  H   UNL     1       0.513  -9.112  19.579  0.00  0.00    +0.000 HD
ATOM     12  H   UNL     1       0.314  -7.431  20.092  0.00  0.00    +0.000 HD
ATOM     13  H   UNL     1      -1.084  -8.354  19.494  0.00  0.00    +0.000 HD
ENDBRANCH   8  10
BRANCH   8  14
ATOM     14  C   UNL     1       1.445  -8.367  17.301  0.00  0.00    +0.000 C 
ATOM     15  H   UNL     1       2.337  -7.742  17.413  0.00  0.00    +0.000 HD
ATOM     16  H   UNL     1       1.249  -8.490  16.230  0.00  0.00    +0.000 HD
ATOM     17  H   UNL     1       1.702  -9.347  17.709  0.00  0.00    +0.000 HD
ENDBRANCH   8  14
ENDBRANCH   4   7
ENDBRANCH   1   4
BRANCH   1  18
ATOM     18  C   UNL     1       1.874  -4.808  15.487  0.00  0.00    +0.000 C 
ATOM     19  H   UNL     1       2.056  -5.648  14.804  0.00  0.00    +0.000 HD
BRANCH  18  20
ATOM     20  C   UNL     1       2.836  -4.945  16.673  0.00  0.00    +0.000 C 
ATOM     21  H   UNL     1       3.841  -4.600  16.414  0.00  0.00    +0.000 HD
ATOM     22  H   UNL     1       2.510  -4.338  17.525  0.00  0.00    +0.000 HD
ATOM     23  H   UNL     1       2.907  -5.986  17.007  0.00  0.00    +0.000 HD
ENDBRANCH  18  20
BRANCH  18  24
ATOM     24  C   UNL     1       2.138  -3.496  14.728  0.00  0.00    +0.000 C 
ATOM     25  H   UNL     1       1.314  -2.789  14.889  0.00  0.00    +0.000 HD
ATOM     26  H   UNL     1       2.198  -3.690  13.651  0.00  0.00    +0.000 HD
BRANCH  24  28
ATOM     27  O   UNL     1       4.135  -2.157  14.358  0.00  0.00    +0.000 OA
ATOM     28  C   UNL     1       3.425  -2.805  15.119  0.00  0.00    +0.000 C 
ATOM     29  H   UNL     1       3.720  -2.936  16.175  0.00  0.00    +0.000 HD
ENDBRANCH  24  28
ENDBRANCH  18  24
ENDBRANCH   1  18
TORSDOF 8
ENDMDL
MODEL 2
REMARK VINA RESULT:    -4.164      1.574      2.091
REMARK INTER + INTRA:          -6.546
REMARK INTER:                  -6.082
REMARK INTRA:                  -0.464
REMARK UNBOUND:                -0.800
REMARK  Name = 443157
REMARK  8 active torsions:
REMARK  status: ('A' for Active; 'I' for Inactive)
REMARK    1  A    between atoms: C_2  and  C_3
REMARK    2  A    between atoms: C_2  and  C_5
REMARK    3  A    between atoms: C_2  and  C_6
REMARK    4  A    between atoms: C_3  and  C_4
REMARK    5  A    between atoms: C_4  and  C_7
REMARK    6  A    between atoms: C_5  and  C_9
REMARK    7  A    between atoms: C_8  and  C_10
REMARK    8  A    between atoms: C_8  and  C_11
REMARK                            x       y       z     vdW  Elec       q    Type
REMARK                         _______ _______ _______ _____ _____    ______ ____
ROOT
ATOM      1  C   UNL     1      -0.539  -6.216  16.265  0.00  0.00    +0.000 C 
ATOM      2  H   UNL     1      -1.118  -5.375  16.670  0.00  0.00    +0.000 HD
ATOM      3  H   UNL     1      -1.250  -6.842  15.710  0.00  0.00    +0.000 HD
ENDROOT
BRANCH   1   4
ATOM      4  C   UNL     1       0.051  -7.030  17.421  0.00  0.00    +0.000 C 
ATOM      5  H   UNL     1       1.144  -7.051  17.364  0.00  0.00    +0.000 HD
ATOM      6  H   UNL     1      -0.185  -6.557  18.382  0.00  0.00    +0.000 HD
BRANCH   4   7
ATOM      7  C   UNL     1      -0.532  -8.415  17.461  0.00  0.00    +0.000 C 
ATOM      8  C   UNL     1       0.132  -9.587  17.448  0.00  0.00    +0.000 C 
ATOM      9  H   UNL     1      -1.620  -8.452  17.495  0.00  0.00    +0.000 HD
BRANCH   8  10
ATOM     10  C   UNL     1      -0.511 -10.944  17.490  0.00  0.00    +0.000 C 
ATOM     11  H   UNL     1      -1.322 -11.028  16.759  0.00  0.00    +0.000 HD
ATOM     12  H   UNL     1       0.224 -11.723  17.266  0.00  0.00    +0.000 HD
ATOM     13  H   UNL     1      -0.933 -11.135  18.482  0.00  0.00    +0.000 HD
ENDBRANCH   8  10
BRANCH   8  14
ATOM     14  C   UNL     1       1.635  -9.612  17.373  0.00  0.00    +0.000 C 
ATOM     15  H   UNL     1       2.038  -8.634  17.660  0.00  0.00    +0.000 HD
ATOM     16  H   UNL     1       1.954  -9.822  16.346  0.00  0.00    +0.000 HD
ATOM     17  H   UNL     1       2.112 -10.345  18.027  0.00  0.00    +0.000 HD
ENDBRANCH   8  14
ENDBRANCH   4   7
ENDBRANCH   1   4
BRANCH   1  18
ATOM     18  C   UNL     1       0.523  -5.682  15.281  0.00  0.00    +0.000 C 
ATOM     19  H   UNL     1       0.015  -5.170  14.453  0.00  0.00    +0.000 HD
BRANCH  18  20
ATOM     20  C   UNL     1       1.367  -6.816  14.689  0.00  0.00    +0.000 C 
ATOM     21  H   UNL     1       0.752  -7.689  14.449  0.00  0.00    +0.000 HD
ATOM     22  H   UNL     1       1.849  -6.511  13.753  0.00  0.00    +0.000 HD
ATOM     23  H   UNL     1       2.151  -7.132  15.385  0.00  0.00    +0.000 HD
ENDBRANCH  18  20
BRANCH  18  24
ATOM     24  C   UNL     1       1.421  -4.664  16.006  0.00  0.00    +0.000 C 
ATOM     25  H   UNL     1       2.396  -5.110  16.235  0.00  0.00    +0.000 HD
ATOM     26  H   UNL     1       0.963  -4.370  16.957  0.00  0.00    +0.000 HD
BRANCH  24  28
ATOM     27  O   UNL     1       2.593  -3.209  14.448  0.00  0.00    +0.000 OA
ATOM     28  C   UNL     1       1.663  -3.391  15.227  0.00  0.00    +0.000 C 
ATOM     29  H   UNL     1       0.934  -2.583  15.418  0.00  0.00    +0.000 HD
ENDBRANCH  24  28
ENDBRANCH  18  24
ENDBRANCH   1  18
TORSDOF 8
ENDMDL
MODEL 3
REMARK VINA RESULT:    -4.039     21.398     22.726
REMARK INTER + INTRA:          -6.374
REMARK INTER:                  -6.060
REMARK INTRA:                  -0.314
REMARK UNBOUND:                -0.800
REMARK  Name = 443157
REMARK  8 active torsions:
REMARK  status: ('A' for Active; 'I' for Inactive)
REMARK    1  A    between atoms: C_2  and  C_3
REMARK    2  A    between atoms: C_2  and  C_5
REMARK    3  A    between atoms: C_2  and  C_6
REMARK    4  A    between atoms: C_3  and  C_4
REMARK    5  A    between atoms: C_4  and  C_7
REMARK    6  A    between atoms: C_5  and  C_9
REMARK    7  A    between atoms: C_8  and  C_10
REMARK    8  A    between atoms: C_8  and  C_11
REMARK                            x       y       z     vdW  Elec       q    Type
REMARK                         _______ _______ _______ _____ _____    ______ ____
ROOT
ATOM      1  C   UNL     1      12.899  -9.679  -3.012  0.00  0.00    +0.000 C 
ATOM      2  H   UNL     1      13.762 -10.126  -2.500  0.00  0.00    +0.000 HD
ATOM      3  H   UNL     1      12.811  -8.653  -2.633  0.00  0.00    +0.000 HD
ENDROOT
BRANCH   1   4
ATOM      4  C   UNL     1      11.632 -10.461  -2.650  0.00  0.00    +0.000 C 
ATOM      5  H   UNL     1      11.094 -10.769  -3.552  0.00  0.00    +0.000 HD
ATOM      6  H   UNL     1      11.891 -11.390  -2.129  0.00  0.00    +0.000 HD
BRANCH   4   7
ATOM      7  C   UNL     1      10.755  -9.669  -1.721  0.00  0.00    +0.000 C 
ATOM      8  C   UNL     1       9.634 -10.081  -1.099  0.00  0.00    +0.000 C 
ATOM      9  H   UNL     1      11.077  -8.642  -1.553  0.00  0.00    +0.000 HD
BRANCH   8  10
ATOM     10  C   UNL     1       8.798  -9.237  -0.178  0.00  0.00    +0.000 C 
ATOM     11  H   UNL     1       9.304  -8.301   0.080  0.00  0.00    +0.000 HD
ATOM     12  H   UNL     1       7.845  -8.983  -0.652  0.00  0.00    +0.000 HD
ATOM     13  H   UNL     1       8.594  -9.776   0.753  0.00  0.00    +0.000 HD
ENDBRANCH   8  10
BRANCH   8  14
ATOM     14  C   UNL     1       9.114 -11.478  -1.307  0.00  0.00    +0.000 C 
ATOM     15  H   UNL     1       9.609 -11.933  -2.172  0.00  0.00    +0.000 HD
ATOM     16  H   UNL     1       8.037 -11.449  -1.509  0.00  0.00    +0.000 HD
ATOM     17  H   UNL     1       9.278 -12.156  -0.467  0.00  0.00    +0.000 HD
ENDBRANCH   8  14
ENDBRANCH   4   7
ENDBRANCH   1   4
BRANCH   1  18
ATOM     18  C   UNL     1      13.176  -9.622  -4.530  0.00  0.00    +0.000 C 
ATOM     19  H   UNL     1      13.101 -10.636  -4.944  0.00  0.00    +0.000 HD
BRANCH  18  20
ATOM     20  C   UNL     1      14.585  -9.093  -4.827  0.00  0.00    +0.000 C 
ATOM     21  H   UNL     1      14.570  -8.024  -5.059  0.00  0.00    +0.000 HD
ATOM     22  H   UNL     1      15.248  -9.214  -3.964  0.00  0.00    +0.000 HD
ATOM     23  H   UNL     1      15.035  -9.620  -5.676  0.00  0.00    +0.000 HD
ENDBRANCH  18  20
BRANCH  18  24
ATOM     24  C   UNL     1      12.115  -8.738  -5.207  0.00  0.00    +0.000 C 
ATOM     25  H   UNL     1      12.561  -7.793  -5.541  0.00  0.00    +0.000 HD
ATOM     26  H   UNL     1      11.320  -8.491  -4.494  0.00  0.00    +0.000 HD
BRANCH  24  28
ATOM     27  O   UNL     1      10.947 -10.502  -6.407  0.00  0.00    +0.000 OA
ATOM     28  C   UNL     1      11.446  -9.382  -6.401  0.00  0.00    +0.000 C 
ATOM     29  H   UNL     1      11.444  -8.770  -7.319  0.00  0.00    +0.000 HD
ENDBRANCH  24  28
ENDBRANCH  18  24
ENDBRANCH   1  18
TORSDOF 8
ENDMDL
MODEL 4
REMARK VINA RESULT:    -3.910     23.103     25.523
REMARK INTER + INTRA:          -6.196
REMARK INTER:                  -5.884
REMARK INTRA:                  -0.312
REMARK UNBOUND:                -0.800
REMARK  Name = 443157
REMARK  8 active torsions:
REMARK  status: ('A' for Active; 'I' for Inactive)
REMARK    1  A    between atoms: C_2  and  C_3
REMARK    2  A    between atoms: C_2  and  C_5
REMARK    3  A    between atoms: C_2  and  C_6
REMARK    4  A    between atoms: C_3  and  C_4
REMARK    5  A    between atoms: C_4  and  C_7
REMARK    6  A    between atoms: C_5  and  C_9
REMARK    7  A    between atoms: C_8  and  C_10
REMARK    8  A    between atoms: C_8  and  C_11
REMARK                            x       y       z     vdW  Elec       q    Type
REMARK                         _______ _______ _______ _____ _____    ______ ____
ROOT
ATOM      1  C   UNL     1       6.656  12.768  -1.127  0.00  0.00    +0.000 C 
ATOM      2  H   UNL     1       6.250  13.786  -1.199  0.00  0.00    +0.000 HD
ATOM      3  H   UNL     1       6.278  12.221  -2.000  0.00  0.00    +0.000 HD
ENDROOT
BRANCH   1   4
ATOM      4  C   UNL     1       6.133  12.102   0.150  0.00  0.00    +0.000 C 
ATOM      5  H   UNL     1       5.044  11.999   0.117  0.00  0.00    +0.000 HD
ATOM      6  H   UNL     1       6.524  11.081   0.236  0.00  0.00    +0.000 HD
BRANCH   4   7
ATOM      7  C   UNL     1       6.585  12.848   1.374  0.00  0.00    +0.000 C 
ATOM      8  C   UNL     1       6.006  12.860   2.589  0.00  0.00    +0.000 C 
ATOM      9  H   UNL     1       7.483  13.449   1.236  0.00  0.00    +0.000 HD
BRANCH   8  10
ATOM     10  C   UNL     1       6.510  13.630   3.777  0.00  0.00    +0.000 C 
ATOM     11  H   UNL     1       5.686  14.033   4.375  0.00  0.00    +0.000 HD
ATOM     12  H   UNL     1       7.108  12.983   4.426  0.00  0.00    +0.000 HD
ATOM     13  H   UNL     1       7.130  14.471   3.451  0.00  0.00    +0.000 HD
ENDBRANCH   8  10
BRANCH   8  14
ATOM     14  C   UNL     1       4.746  12.076   2.843  0.00  0.00    +0.000 C 
ATOM     15  H   UNL     1       4.961  11.238   3.515  0.00  0.00    +0.000 HD
ATOM     16  H   UNL     1       4.366  11.667   1.900  0.00  0.00    +0.000 HD
ATOM     17  H   UNL     1       3.940  12.646   3.310  0.00  0.00    +0.000 HD
ENDBRANCH   8  14
ENDBRANCH   4   7
ENDBRANCH   1   4
BRANCH   1  18
ATOM     18  C   UNL     1       8.197  12.823  -1.208  0.00  0.00    +0.000 C 
ATOM     19  H   UNL     1       8.614  12.604  -0.216  0.00  0.00    +0.000 HD
BRANCH  18  20
ATOM     20  C   UNL     1       8.691  14.211  -1.632  0.00  0.00    +0.000 C 
ATOM     21  H   UNL     1       8.725  14.901  -0.783  0.00  0.00    +0.000 HD
ATOM     22  H   UNL     1       9.709  14.168  -2.035  0.00  0.00    +0.000 HD
ATOM     23  H   UNL     1       8.042  14.646  -2.400  0.00  0.00    +0.000 HD
ENDBRANCH  18  20
BRANCH  18  24
ATOM     24  C   UNL     1       8.693  11.751  -2.193  0.00  0.00    +0.000 C 
ATOM     25  H   UNL     1       8.007  10.894  -2.202  0.00  0.00    +0.000 HD
ATOM     26  H   UNL     1       9.676  11.380  -1.882  0.00  0.00    +0.000 HD
BRANCH  24  28
ATOM     27  O   UNL     1       9.883  12.222  -4.262  0.00  0.00    +0.000 OA
ATOM     28  C   UNL     1       8.841  12.241  -3.616  0.00  0.00    +0.000 C 
ATOM     29  H   UNL     1       7.920  12.656  -4.062  0.00  0.00    +0.000 HD
ENDBRANCH  24  28
ENDBRANCH  18  24
ENDBRANCH   1  18
TORSDOF 8
ENDMDL
MODEL 5
REMARK VINA RESULT:    -3.858     21.894     23.269
REMARK INTER + INTRA:          -6.124
REMARK INTER:                  -5.814
REMARK INTRA:                  -0.310
REMARK UNBOUND:                -0.800
REMARK  Name = 443157
REMARK  8 active torsions:
REMARK  status: ('A' for Active; 'I' for Inactive)
REMARK    1  A    between atoms: C_2  and  C_3
REMARK    2  A    between atoms: C_2  and  C_5
REMARK    3  A    between atoms: C_2  and  C_6
REMARK    4  A    between atoms: C_3  and  C_4
REMARK    5  A    between atoms: C_4  and  C_7
REMARK    6  A    between atoms: C_5  and  C_9
REMARK    7  A    between atoms: C_8  and  C_10
REMARK    8  A    between atoms: C_8  and  C_11
REMARK                            x       y       z     vdW  Elec       q    Type
REMARK                         _______ _______ _______ _____ _____    ______ ____
ROOT
ATOM      1  C   UNL     1      13.371  -9.588  -3.031  0.00  0.00    +0.000 C 
ATOM      2  H   UNL     1      13.507 -10.077  -2.057  0.00  0.00    +0.000 HD
ATOM      3  H   UNL     1      13.587  -8.523  -2.876  0.00  0.00    +0.000 HD
ENDROOT
BRANCH   1   4
ATOM      4  C   UNL     1      11.915  -9.747  -3.480  0.00  0.00    +0.000 C 
ATOM      5  H   UNL     1      11.474  -8.774  -3.723  0.00  0.00    +0.000 HD
ATOM      6  H   UNL     1      11.861 -10.334  -4.404  0.00  0.00    +0.000 HD
BRANCH   4   7
ATOM      7  C   UNL     1      11.107 -10.481  -2.447  0.00  0.00    +0.000 C 
ATOM      8  C   UNL     1      10.432  -9.957  -1.406  0.00  0.00    +0.000 C 
ATOM      9  H   UNL     1      11.087 -11.563  -2.568  0.00  0.00    +0.000 HD
BRANCH   8  10
ATOM     10  C   UNL     1       9.639 -10.749  -0.405  0.00  0.00    +0.000 C 
ATOM     11  H   UNL     1      10.169 -11.658  -0.101  0.00  0.00    +0.000 HD
ATOM     12  H   UNL     1       9.454 -10.154   0.494  0.00  0.00    +0.000 HD
ATOM     13  H   UNL     1       8.677 -11.049  -0.832  0.00  0.00    +0.000 HD
ENDBRANCH   8  10
BRANCH   8  14
ATOM     14  C   UNL     1      10.439  -8.472  -1.160  0.00  0.00    +0.000 C 
ATOM     15  H   UNL     1      10.440  -8.275  -0.083  0.00  0.00    +0.000 HD
ATOM     16  H   UNL     1       9.538  -8.019  -1.588  0.00  0.00    +0.000 HD
ATOM     17  H   UNL     1      11.304  -7.947  -1.570  0.00  0.00    +0.000 HD
ENDBRANCH   8  14
ENDBRANCH   4   7
ENDBRANCH   1   4
BRANCH   1  18
ATOM     18  C   UNL     1      14.393 -10.157  -4.038  0.00  0.00    +0.000 C 
ATOM     19  H   UNL     1      15.388  -9.761  -3.798  0.00  0.00    +0.000 HD
BRANCH  18  20
ATOM     20  C   UNL     1      14.057  -9.749  -5.477  0.00  0.00    +0.000 C 
ATOM     21  H   UNL     1      13.281 -10.392  -5.904  0.00  0.00    +0.000 HD
ATOM     22  H   UNL     1      13.670  -8.725  -5.523  0.00  0.00    +0.000 HD
ATOM     23  H   UNL     1      14.940  -9.806  -6.122  0.00  0.00    +0.000 HD
ENDBRANCH  18  20
BRANCH  18  24
ATOM     24  C   UNL     1      14.434 -11.690  -3.908  0.00  0.00    +0.000 C 
ATOM     25  H   UNL     1      13.881 -12.158  -4.731  0.00  0.00    +0.000 HD
ATOM     26  H   UNL     1      13.956 -12.001  -2.972  0.00  0.00    +0.000 HD
BRANCH  24  28
ATOM     27  O   UNL     1      16.416 -12.676  -2.900  0.00  0.00    +0.000 OA
ATOM     28  C   UNL     1      15.831 -12.271  -3.897  0.00  0.00    +0.000 C 
ATOM     29  H   UNL     1      16.330 -12.297  -4.882  0.00  0.00    +0.000 HD
ENDBRANCH  24  28
ENDBRANCH  18  24
ENDBRANCH   1  18
TORSDOF 8
ENDMDL
MODEL 6
REMARK VINA RESULT:    -3.855     25.135     26.352
REMARK INTER + INTRA:          -6.120
REMARK INTER:                  -5.596
REMARK INTRA:                  -0.524
REMARK UNBOUND:                -0.800
REMARK  Name = 443157
REMARK  8 active torsions:
REMARK  status: ('A' for Active; 'I' for Inactive)
REMARK    1  A    between atoms: C_2  and  C_3
REMARK    2  A    between atoms: C_2  and  C_5
REMARK    3  A    between atoms: C_2  and  C_6
REMARK    4  A    between atoms: C_3  and  C_4
REMARK    5  A    between atoms: C_4  and  C_7
REMARK    6  A    between atoms: C_5  and  C_9
REMARK    7  A    between atoms: C_8  and  C_10
REMARK    8  A    between atoms: C_8  and  C_11
REMARK                            x       y       z     vdW  Elec       q    Type
REMARK                         _______ _______ _______ _____ _____    ______ ____
ROOT
ATOM      1  C   UNL     1      -4.094  -6.417  -9.618  0.00  0.00    +0.000 C 
ATOM      2  H   UNL     1      -3.982  -6.061 -10.651  0.00  0.00    +0.000 HD
ATOM      3  H   UNL     1      -3.905  -5.552  -8.969  0.00  0.00    +0.000 HD
ENDROOT
BRANCH   1   4
ATOM      4  C   UNL     1      -3.045  -7.497  -9.336  0.00  0.00    +0.000 C 
ATOM      5  H   UNL     1      -2.073  -7.213  -9.751  0.00  0.00    +0.000 HD
ATOM      6  H   UNL     1      -2.886  -7.604  -8.257  0.00  0.00    +0.000 HD
BRANCH   4   7
ATOM      7  C   UNL     1      -3.497  -8.837  -9.845  0.00  0.00    +0.000 C 
ATOM      8  C   UNL     1      -3.913  -9.894  -9.121  0.00  0.00    +0.000 C 
ATOM      9  H   UNL     1      -3.468  -8.947 -10.928  0.00  0.00    +0.000 HD
BRANCH   8  10
ATOM     10  C   UNL     1      -4.355 -11.211  -9.693  0.00  0.00    +0.000 C 
ATOM     11  H   UNL     1      -3.658 -12.016  -9.437  0.00  0.00    +0.000 HD
ATOM     12  H   UNL     1      -5.340 -11.486  -9.305  0.00  0.00    +0.000 HD
ATOM     13  H   UNL     1      -4.412 -11.153 -10.785  0.00  0.00    +0.000 HD
ENDBRANCH   8  10
BRANCH   8  14
ATOM     14  C   UNL     1      -3.952  -9.823  -7.618  0.00  0.00    +0.000 C 
ATOM     15  H   UNL     1      -3.217  -9.092  -7.263  0.00  0.00    +0.000 HD
ATOM     16  H   UNL     1      -3.693 -10.799  -7.193  0.00  0.00    +0.000 HD
ATOM     17  H   UNL     1      -4.914  -9.521  -7.201  0.00  0.00    +0.000 HD
ENDBRANCH   8  14
ENDBRANCH   4   7
ENDBRANCH   1   4
BRANCH   1  18
ATOM     18  C   UNL     1      -5.546  -6.893  -9.395  0.00  0.00    +0.000 C 
ATOM     19  H   UNL     1      -5.547  -7.983  -9.262  0.00  0.00    +0.000 HD
BRANCH  18  20
ATOM     20  C   UNL     1      -6.441  -6.562 -10.595  0.00  0.00    +0.000 C 
ATOM     21  H   UNL     1      -6.588  -5.483 -10.698  0.00  0.00    +0.000 HD
ATOM     22  H   UNL     1      -5.992  -6.904 -11.535  0.00  0.00    +0.000 HD
ATOM     23  H   UNL     1      -7.424  -7.034 -10.499  0.00  0.00    +0.000 HD
ENDBRANCH  18  20
BRANCH  18  24
ATOM     24  C   UNL     1      -6.101  -6.246  -8.114  0.00  0.00    +0.000 C 
ATOM     25  H   UNL     1      -6.816  -5.452  -8.366  0.00  0.00    +0.000 HD
ATOM     26  H   UNL     1      -5.288  -5.785  -7.543  0.00  0.00    +0.000 HD
BRANCH  24  28
ATOM     27  O   UNL     1      -6.647  -7.248  -5.966  0.00  0.00    +0.000 OA
ATOM     28  C   UNL     1      -6.794  -7.215  -7.183  0.00  0.00    +0.000 C 
ATOM     29  H   UNL     1      -7.459  -7.943  -7.681  0.00  0.00    +0.000 HD
ENDBRANCH  24  28
ENDBRANCH  18  24
ENDBRANCH   1  18
TORSDOF 8
ENDMDL
MODEL 7
REMARK VINA RESULT:    -3.840      2.952      4.220
REMARK INTER + INTRA:          -6.099
REMARK INTER:                  -5.853
REMARK INTRA:                  -0.246
REMARK UNBOUND:                -0.800
REMARK  Name = 443157
REMARK  8 active torsions:
REMARK  status: ('A' for Active; 'I' for Inactive)
REMARK    1  A    between atoms: C_2  and  C_3
REMARK    2  A    between atoms: C_2  and  C_5
REMARK    3  A    between atoms: C_2  and  C_6
REMARK    4  A    between atoms: C_3  and  C_4
REMARK    5  A    between atoms: C_4  and  C_7
REMARK    6  A    between atoms: C_5  and  C_9
REMARK    7  A    between atoms: C_8  and  C_10
REMARK    8  A    between atoms: C_8  and  C_11
REMARK                            x       y       z     vdW  Elec       q    Type
REMARK                         _______ _______ _______ _____ _____    ______ ____
ROOT
ATOM      1  C   UNL     1      -0.168  -8.044  18.256  0.00  0.00    +0.000 C 
ATOM      2  H   UNL     1       0.512  -7.427  18.858  0.00  0.00    +0.000 HD
ATOM      3  H   UNL     1      -1.185  -7.795  18.584  0.00  0.00    +0.000 HD
ENDROOT
BRANCH   1   4
ATOM      4  C   UNL     1       0.104  -9.525  18.538  0.00  0.00    +0.000 C 
ATOM      5  H   UNL     1       1.180  -9.725  18.562  0.00  0.00    +0.000 HD
ATOM      6  H   UNL     1      -0.270  -9.800  19.531  0.00  0.00    +0.000 HD
BRANCH   4   7
ATOM      7  C   UNL     1      -0.604 -10.405  17.545  0.00  0.00    +0.000 C 
ATOM      8  C   UNL     1      -1.279 -11.544  17.791  0.00  0.00    +0.000 C 
ATOM      9  H   UNL     1      -0.542 -10.067  16.512  0.00  0.00    +0.000 HD
BRANCH   8  10
ATOM     10  C   UNL     1      -1.968 -12.380  16.750  0.00  0.00    +0.000 C 
ATOM     11  H   UNL     1      -3.056 -12.355  16.868  0.00  0.00    +0.000 HD
ATOM     12  H   UNL     1      -1.733 -12.011  15.747  0.00  0.00    +0.000 HD
ATOM     13  H   UNL     1      -1.646 -13.423  16.825  0.00  0.00    +0.000 HD
ENDBRANCH   8  10
BRANCH   8  14
ATOM     14  C   UNL     1      -1.381 -12.084  19.192  0.00  0.00    +0.000 C 
ATOM     15  H   UNL     1      -2.069 -12.936  19.212  0.00  0.00    +0.000 HD
ATOM     16  H   UNL     1      -1.777 -11.312  19.862  0.00  0.00    +0.000 HD
ATOM     17  H   UNL     1      -0.438 -12.440  19.613  0.00  0.00    +0.000 HD
ENDBRANCH   8  14
ENDBRANCH   4   7
ENDBRANCH   1   4
BRANCH   1  18
ATOM     18  C   UNL     1      -0.024  -7.663  16.766  0.00  0.00    +0.000 C 
ATOM     19  H   UNL     1      -0.609  -8.366  16.160  0.00  0.00    +0.000 HD
BRANCH  18  20
ATOM     20  C   UNL     1       1.436  -7.740  16.302  0.00  0.00    +0.000 C 
ATOM     21  H   UNL     1       1.505  -7.828  15.214  0.00  0.00    +0.000 HD
ATOM     22  H   UNL     1       1.991  -6.835  16.575  0.00  0.00    +0.000 HD
ATOM     23  H   UNL     1       1.949  -8.599  16.748  0.00  0.00    +0.000 HD
ENDBRANCH  18  20
BRANCH  18  24
ATOM     24  C   UNL     1      -0.585  -6.247  16.549  0.00  0.00    +0.000 C 
ATOM     25  H   UNL     1      -0.999  -5.852  17.484  0.00  0.00    +0.000 HD
ATOM     26  H   UNL     1      -1.399  -6.274  15.815  0.00  0.00    +0.000 HD
BRANCH  24  28
ATOM     27  O   UNL     1       0.520  -4.872  14.873  0.00  0.00    +0.000 OA
ATOM     28  C   UNL     1       0.433  -5.253  16.035  0.00  0.00    +0.000 C 
ATOM     29  H   UNL     1       1.143  -4.881  16.795  0.00  0.00    +0.000 HD
ENDBRANCH  24  28
ENDBRANCH  18  24
ENDBRANCH   1  18
TORSDOF 8
ENDMDL
MODEL 8
REMARK VINA RESULT:    -3.823     23.942     27.025
REMARK INTER + INTRA:          -6.075
REMARK INTER:                  -5.749
REMARK INTRA:                  -0.326
REMARK UNBOUND:                -0.800
REMARK  Name = 443157
REMARK  8 active torsions:
REMARK  status: ('A' for Active; 'I' for Inactive)
REMARK    1  A    between atoms: C_2  and  C_3
REMARK    2  A    between atoms: C_2  and  C_5
REMARK    3  A    between atoms: C_2  and  C_6
REMARK    4  A    between atoms: C_3  and  C_4
REMARK    5  A    between atoms: C_4  and  C_7
REMARK    6  A    between atoms: C_5  and  C_9
REMARK    7  A    between atoms: C_8  and  C_10
REMARK    8  A    between atoms: C_8  and  C_11
REMARK                            x       y       z     vdW  Elec       q    Type
REMARK                         _______ _______ _______ _____ _____    ______ ____
ROOT
ATOM      1  C   UNL     1       8.317  13.037  -1.423  0.00  0.00    +0.000 C 
ATOM      2  H   UNL     1       8.454  13.942  -2.030  0.00  0.00    +0.000 HD
ATOM      3  H   UNL     1       8.873  13.201  -0.491  0.00  0.00    +0.000 HD
ENDROOT
BRANCH   1   4
ATOM      4  C   UNL     1       8.915  11.835  -2.162  0.00  0.00    +0.000 C 
ATOM      5  H   UNL     1       9.989  11.752  -1.964  0.00  0.00    +0.000 HD
ATOM      6  H   UNL     1       8.474  10.902  -1.794  0.00  0.00    +0.000 HD
BRANCH   4   7
ATOM      7  C   UNL     1       8.624  11.906  -3.635  0.00  0.00    +0.000 C 
ATOM      8  C   UNL     1       9.414  12.402  -4.606  0.00  0.00    +0.000 C 
ATOM      9  H   UNL     1       7.651  11.513  -3.927  0.00  0.00    +0.000 HD
BRANCH   8  10
ATOM     10  C   UNL     1       9.063  12.442  -6.067  0.00  0.00    +0.000 C 
ATOM     11  H   UNL     1       8.006  12.208  -6.234  0.00  0.00    +0.000 HD
ATOM     12  H   UNL     1       9.253  13.439  -6.478  0.00  0.00    +0.000 HD
ATOM     13  H   UNL     1       9.660  11.713  -6.623  0.00  0.00    +0.000 HD
ENDBRANCH   8  10
BRANCH   8  14
ATOM     14  C   UNL     1      10.759  12.987  -4.272  0.00  0.00    +0.000 C 
ATOM     15  H   UNL     1      11.222  12.415  -3.460  0.00  0.00    +0.000 HD
ATOM     16  H   UNL     1      10.641  14.023  -3.933  0.00  0.00    +0.000 HD
ATOM     17  H   UNL     1      11.475  12.985  -5.097  0.00  0.00    +0.000 HD
ENDBRANCH   8  14
ENDBRANCH   4   7
ENDBRANCH   1   4
BRANCH   1  18
ATOM     18  C   UNL     1       6.820  12.869  -1.082  0.00  0.00    +0.000 C 
ATOM     19  H   UNL     1       6.466  11.915  -1.493  0.00  0.00    +0.000 HD
BRANCH  18  20
ATOM     20  C   UNL     1       5.972  13.991  -1.694  0.00  0.00    +0.000 C 
ATOM     21  H   UNL     1       6.593  14.838  -2.003  0.00  0.00    +0.000 HD
ATOM     22  H   UNL     1       5.445  13.651  -2.592  0.00  0.00    +0.000 HD
ATOM     23  H   UNL     1       5.225  14.357  -0.981  0.00  0.00    +0.000 HD
ENDBRANCH  18  20
BRANCH  18  24
ATOM     24  C   UNL     1       6.648  12.836   0.446  0.00  0.00    +0.000 C 
ATOM     25  H   UNL     1       6.729  13.848   0.862  0.00  0.00    +0.000 HD
ATOM     26  H   UNL     1       7.441  12.231   0.900  0.00  0.00    +0.000 HD
BRANCH  24  28
ATOM     27  O   UNL     1       5.214  11.227   1.574  0.00  0.00    +0.000 OA
ATOM     28  C   UNL     1       5.333  12.248   0.906  0.00  0.00    +0.000 C 
ATOM     29  H   UNL     1       4.437  12.804   0.578  0.00  0.00    +0.000 HD
ENDBRANCH  24  28
ENDBRANCH  18  24
ENDBRANCH   1  18
TORSDOF 8
ENDMDL
MODEL 9
REMARK VINA RESULT:    -3.660     24.952     26.582
REMARK INTER + INTRA:          -5.851
REMARK INTER:                  -5.453
REMARK INTRA:                  -0.398
REMARK UNBOUND:                -0.800
REMARK  Name = 443157
REMARK  8 active torsions:
REMARK  status: ('A' for Active; 'I' for Inactive)
REMARK    1  A    between atoms: C_2  and  C_3
REMARK    2  A    between atoms: C_2  and  C_5
REMARK    3  A    between atoms: C_2  and  C_6
REMARK    4  A    between atoms: C_3  and  C_4
REMARK    5  A    between atoms: C_4  and  C_7
REMARK    6  A    between atoms: C_5  and  C_9
REMARK    7  A    between atoms: C_8  and  C_10
REMARK    8  A    between atoms: C_8  and  C_11
REMARK                            x       y       z     vdW  Elec       q    Type
REMARK                         _______ _______ _______ _____ _____    ______ ____
ROOT
ATOM      1  C   UNL     1      18.380   9.498   0.868  0.00  0.00    +0.000 C 
ATOM      2  H   UNL     1      18.410  10.297   1.622  0.00  0.00    +0.000 HD
ATOM      3  H   UNL     1      18.469   9.991  -0.109  0.00  0.00    +0.000 HD
ENDROOT
BRANCH   1   4
ATOM      4  C   UNL     1      17.032   8.775   0.946  0.00  0.00    +0.000 C 
ATOM      5  H   UNL     1      16.892   8.118   0.082  0.00  0.00    +0.000 HD
ATOM      6  H   UNL     1      17.000   8.119   1.824  0.00  0.00    +0.000 HD
BRANCH   4   7
ATOM      7  C   UNL     1      15.900   9.754   1.091  0.00  0.00    +0.000 C 
ATOM      8  C   UNL     1      15.341  10.200   2.232  0.00  0.00    +0.000 C 
ATOM      9  H   UNL     1      15.495  10.125   0.151  0.00  0.00    +0.000 HD
BRANCH   8  10
ATOM     10  C   UNL     1      14.207  11.183   2.309  0.00  0.00    +0.000 C 
ATOM     11  H   UNL     1      13.742  11.340   1.331  0.00  0.00    +0.000 HD
ATOM     12  H   UNL     1      13.433  10.822   2.993  0.00  0.00    +0.000 HD
ATOM     13  H   UNL     1      14.567  12.153   2.668  0.00  0.00    +0.000 HD
ENDBRANCH   8  10
BRANCH   8  14
ATOM     14  C   UNL     1      15.831   9.708   3.567  0.00  0.00    +0.000 C 
ATOM     15  H   UNL     1      16.040  10.560   4.223  0.00  0.00    +0.000 HD
ATOM     16  H   UNL     1      16.761   9.142   3.437  0.00  0.00    +0.000 HD
ATOM     17  H   UNL     1      15.125   9.071   4.105  0.00  0.00    +0.000 HD
ENDBRANCH   8  14
ENDBRANCH   4   7
ENDBRANCH   1   4
BRANCH   1  18
ATOM     18  C   UNL     1      19.594   8.564   1.062  0.00  0.00    +0.000 C 
ATOM     19  H   UNL     1      20.441   9.154   1.436  0.00  0.00    +0.000 HD
BRANCH  18  20
ATOM     20  C   UNL     1      20.021   7.911  -0.258  0.00  0.00    +0.000 C 
ATOM     21  H   UNL     1      20.553   8.618  -0.901  0.00  0.00    +0.000 HD
ATOM     22  H   UNL     1      20.706   7.073  -0.087  0.00  0.00    +0.000 HD
ATOM     23  H   UNL     1      19.155   7.532  -0.811  0.00  0.00    +0.000 HD
ENDBRANCH  18  20
BRANCH  18  24
ATOM     24  C   UNL     1      19.247   7.491   2.108  0.00  0.00    +0.000 C 
ATOM     25  H   UNL     1      18.936   6.562   1.613  0.00  0.00    +0.000 HD
ATOM     26  H   UNL     1      18.410   7.828   2.729  0.00  0.00    +0.000 HD
BRANCH  24  28
ATOM     27  O   UNL     1      21.544   7.522   2.908  0.00  0.00    +0.000 OA
ATOM     28  C   UNL     1      20.382   7.157   3.049  0.00  0.00    +0.000 C 
ATOM     29  H   UNL     1      20.102   6.519   3.906  0.00  0.00    +0.000 HD
ENDBRANCH  24  28
ENDBRANCH  18  24
ENDBRANCH   1  18
TORSDOF 8
ENDMDL
MODEL 10
REMARK VINA RESULT:    -3.633     15.586     16.744
REMARK INTER + INTRA:          -5.813
REMARK INTER:                  -5.013
REMARK INTRA:                  -0.800
REMARK UNBOUND:                -0.800
REMARK  Name = 443157
REMARK  8 active torsions:
REMARK  status: ('A' for Active; 'I' for Inactive)
REMARK    1  A    between atoms: C_2  and  C_3
REMARK    2  A    between atoms: C_2  and  C_5
REMARK    3  A    between atoms: C_2  and  C_6
REMARK    4  A    between atoms: C_3  and  C_4
REMARK    5  A    between atoms: C_4  and  C_7
REMARK    6  A    between atoms: C_5  and  C_9
REMARK    7  A    between atoms: C_8  and  C_10
REMARK    8  A    between atoms: C_8  and  C_11
REMARK                            x       y       z     vdW  Elec       q    Type
REMARK                         _______ _______ _______ _____ _____    ______ ____
ROOT
ATOM      1  C   UNL     1      -5.987 -13.283   5.821  0.00  0.00    +0.000 C 
ATOM      2  H   UNL     1      -5.689 -14.339   5.866  0.00  0.00    +0.000 HD
ATOM      3  H   UNL     1      -5.124 -12.702   6.170  0.00  0.00    +0.000 HD
ENDROOT
BRANCH   1   4
ATOM      4  C   UNL     1      -7.168 -13.047   6.768  0.00  0.00    +0.000 C 
ATOM      5  H   UNL     1      -6.954 -12.227   7.460  0.00  0.00    +0.000 HD
ATOM      6  H   UNL     1      -8.054 -12.733   6.203  0.00  0.00    +0.000 HD
BRANCH   4   7
ATOM      7  C   UNL     1      -7.538 -14.309   7.496  0.00  0.00    +0.000 C 
ATOM      8  C   UNL     1      -8.564 -15.141   7.230  0.00  0.00    +0.000 C 
ATOM      9  H   UNL     1      -6.894 -14.555   8.338  0.00  0.00    +0.000 HD
BRANCH   8  10
ATOM     10  C   UNL     1      -8.881 -16.392   7.999  0.00  0.00    +0.000 C 
ATOM     11  H   UNL     1      -9.099 -17.231   7.331  0.00  0.00    +0.000 HD
ATOM     12  H   UNL     1      -8.033 -16.678   8.630  0.00  0.00    +0.000 HD
ATOM     13  H   UNL     1      -9.756 -16.236   8.637  0.00  0.00    +0.000 HD
ENDBRANCH   8  10
BRANCH   8  14
ATOM     14  C   UNL     1      -9.512 -14.847   6.099  0.00  0.00    +0.000 C 
ATOM     15  H   UNL     1      -8.969 -14.375   5.273  0.00  0.00    +0.000 HD
ATOM     16  H   UNL     1     -10.290 -14.152   6.435  0.00  0.00    +0.000 HD
ATOM     17  H   UNL     1     -10.007 -15.726   5.679  0.00  0.00    +0.000 HD
ENDBRANCH   8  14
ENDBRANCH   4   7
ENDBRANCH   1   4
BRANCH   1  18
ATOM     18  C   UNL     1      -6.283 -12.896   4.356  0.00  0.00    +0.000 C 
ATOM     19  H   UNL     1      -5.542 -12.157   4.026  0.00  0.00    +0.000 HD
BRANCH  18  20
ATOM     20  C   UNL     1      -7.674 -12.269   4.206  0.00  0.00    +0.000 C 
ATOM     21  H   UNL     1      -8.351 -12.605   4.998  0.00  0.00    +0.000 HD
ATOM     22  H   UNL     1      -7.631 -11.177   4.279  0.00  0.00    +0.000 HD
ATOM     23  H   UNL     1      -8.123 -12.527   3.241  0.00  0.00    +0.000 HD
ENDBRANCH  18  20
BRANCH  18  24
ATOM     24  C   UNL     1      -6.156 -14.145   3.466  0.00  0.00    +0.000 C 
ATOM     25  H   UNL     1      -5.281 -14.059   2.810  0.00  0.00    +0.000 HD
ATOM     26  H   UNL     1      -7.039 -14.240   2.824  0.00  0.00    +0.000 HD
BRANCH  24  28
ATOM     27  O   UNL     1      -6.876 -16.332   4.249  0.00  0.00    +0.000 OA
ATOM     28  C   UNL     1      -6.034 -15.441   4.235  0.00  0.00    +0.000 C 
ATOM     29  H   UNL     1      -5.109 -15.543   4.830  0.00  0.00    +0.000 HD
ENDBRANCH  24  28
ENDBRANCH  18  24
ENDBRANCH   1  18
TORSDOF 8
ENDMDL
