MODEL 1
REMARK VINA RESULT:    -4.322      0.000      0.000
REMARK INTER + INTRA:          -7.268
REMARK INTER:                  -7.007
REMARK INTRA:                  -0.261
REMARK UNBOUND:                -0.672
REMARK  Name = 8174
REMARK  10 active torsions:
REMARK  status: ('A' for Active; 'I' for Inactive)
REMARK    1  A    between atoms: O_1  and  C_10
REMARK    2  A    between atoms: C_2  and  C_3
REMARK    3  A    between atoms: C_2  and  C_4
REMARK    4  A    between atoms: C_3  and  C_5
REMARK    5  A    between atoms: C_4  and  C_6
REMARK    6  A    between atoms: C_5  and  C_7
REMARK    7  A    between atoms: C_6  and  C_8
REMARK    8  A    between atoms: C_7  and  C_9
REMARK    9  A    between atoms: C_8  and  C_10
REMARK   10  A    between atoms: C_9  and  C_11
REMARK                            x       y       z     vdW  Elec       q    Type
REMARK                         _______ _______ _______ _____ _____    ______ ____
ROOT
ATOM      1  C   UNL     1      -0.547  -5.973  16.290  0.00  0.00    +0.000 C 
ATOM      2  H   UNL     1      -0.463  -5.328  17.174  0.00  0.00    +0.000 HD
ATOM      3  H   UNL     1      -1.526  -5.764  15.839  0.00  0.00    +0.000 HD
ENDROOT
BRANCH   1   4
ATOM      4  C   UNL     1      -0.505  -7.436  16.739  0.00  0.00    +0.000 C 
ATOM      5  H   UNL     1       0.233  -7.977  16.135  0.00  0.00    +0.000 HD
ATOM      6  H   UNL     1      -1.480  -7.896  16.533  0.00  0.00    +0.000 HD
BRANCH   4   7
ATOM      7  C   UNL     1      -0.173  -7.609  18.222  0.00  0.00    +0.000 C 
ATOM      8  H   UNL     1       0.657  -6.946  18.493  0.00  0.00    +0.000 HD
ATOM      9  H   UNL     1      -1.038  -7.309  18.827  0.00  0.00    +0.000 HD
BRANCH   7  10
ATOM     10  C   UNL     1       0.196  -9.060  18.541  0.00  0.00    +0.000 C 
ATOM     11  H   UNL     1      -0.190  -9.329  19.532  0.00  0.00    +0.000 HD
ATOM     12  H   UNL     1       1.288  -9.160  18.583  0.00  0.00    +0.000 HD
BRANCH  10  13
ATOM     13  C   UNL     1      -0.365 -10.021  17.493  0.00  0.00    +0.000 C 
ATOM     14  H   UNL     1      -0.038  -9.713  16.492  0.00  0.00    +0.000 HD
ATOM     15  H   UNL     1      -1.460  -9.984  17.502  0.00  0.00    +0.000 HD
BRANCH  13  16
ATOM     16  C   UNL     1       0.091 -11.449  17.745  0.00  0.00    +0.000 C 
ATOM     17  H   UNL     1      -0.765 -12.130  17.796  0.00  0.00    +0.000 HD
ATOM     18  H   UNL     1       0.647 -11.523  18.685  0.00  0.00    +0.000 HD
ATOM     19  H   UNL     1       0.746 -11.786  16.935  0.00  0.00    +0.000 HD
ENDBRANCH  13  16
ENDBRANCH  10  13
ENDBRANCH   7  10
ENDBRANCH   4   7
ENDBRANCH   1   4
BRANCH   1  20
ATOM     20  C   UNL     1       0.552  -5.610  15.289  0.00  0.00    +0.000 C 
ATOM     21  H   UNL     1       0.168  -5.725  14.269  0.00  0.00    +0.000 HD
ATOM     22  H   UNL     1       1.393  -6.307  15.400  0.00  0.00    +0.000 HD
BRANCH  20  23
ATOM     23  C   UNL     1       1.042  -4.176  15.500  0.00  0.00    +0.000 C 
ATOM     24  H   UNL     1       0.939  -3.901  16.557  0.00  0.00    +0.000 HD
ATOM     25  H   UNL     1       0.416  -3.484  14.923  0.00  0.00    +0.000 HD
BRANCH  23  26
ATOM     26  C   UNL     1       2.504  -4.019  15.069  0.00  0.00    +0.000 C 
ATOM     27  H   UNL     1       3.079  -4.908  15.357  0.00  0.00    +0.000 HD
ATOM     28  H   UNL     1       2.572  -3.960  13.976  0.00  0.00    +0.000 HD
BRANCH  26  29
ATOM     29  C   UNL     1       3.154  -2.781  15.676  0.00  0.00    +0.000 C 
ATOM     30  H   UNL     1       3.942  -3.066  16.380  0.00  0.00    +0.000 HD
ATOM     31  H   UNL     1       2.411  -2.176  16.205  0.00  0.00    +0.000 HD
BRANCH  29  32
ATOM     32  O   UNL     1       3.734  -1.987  14.652  0.00  0.00    +0.000 OA
ATOM     33  H   UNL     1       3.829  -2.557  13.869  0.00  0.00    +0.000 HD
ENDBRANCH  29  32
ENDBRANCH  26  29
ENDBRANCH  23  26
ENDBRANCH  20  23
ENDBRANCH   1  20
TORSDOF 10
ENDMDL
MODEL 2
REMARK VINA RESULT:    -4.125     24.597     26.093
REMARK INTER + INTRA:          -6.968
REMARK INTER:                  -6.127
REMARK INTRA:                  -0.841
REMARK UNBOUND:                -0.672
REMARK  Name = 8174
REMARK  10 active torsions:
REMARK  status: ('A' for Active; 'I' for Inactive)
REMARK    1  A    between atoms: O_1  and  C_10
REMARK    2  A    between atoms: C_2  and  C_3
REMARK    3  A    between atoms: C_2  and  C_4
REMARK    4  A    between atoms: C_3  and  C_5
REMARK    5  A    between atoms: C_4  and  C_6
REMARK    6  A    between atoms: C_5  and  C_7
REMARK    7  A    between atoms: C_6  and  C_8
REMARK    8  A    between atoms: C_7  and  C_9
REMARK    9  A    between atoms: C_8  and  C_10
REMARK   10  A    between atoms: C_9  and  C_11
REMARK                            x       y       z     vdW  Elec       q    Type
REMARK                         _______ _______ _______ _____ _____    ______ ____
ROOT
ATOM      1  C   UNL     1      -3.636  -9.468  -9.937  0.00  0.00    +0.000 C 
ATOM      2  H   UNL     1      -2.893  -9.952 -10.583  0.00  0.00    +0.000 HD
ATOM      3  H   UNL     1      -4.486  -9.200 -10.578  0.00  0.00    +0.000 HD
ENDROOT
BRANCH   1   4
ATOM      4  C   UNL     1      -3.027  -8.189  -9.355  0.00  0.00    +0.000 C 
ATOM      5  H   UNL     1      -1.935  -8.287  -9.335  0.00  0.00    +0.000 HD
ATOM      6  H   UNL     1      -3.354  -8.084  -8.313  0.00  0.00    +0.000 HD
BRANCH   4   7
ATOM      7  C   UNL     1      -3.409  -6.926 -10.129  0.00  0.00    +0.000 C 
ATOM      8  H   UNL     1      -2.906  -6.057  -9.688  0.00  0.00    +0.000 HD
ATOM      9  H   UNL     1      -3.056  -7.013 -11.164  0.00  0.00    +0.000 HD
BRANCH   7  10
ATOM     10  C   UNL     1      -4.924  -6.708 -10.121  0.00  0.00    +0.000 C 
ATOM     11  H   UNL     1      -5.431  -7.640 -10.399  0.00  0.00    +0.000 HD
ATOM     12  H   UNL     1      -5.190  -5.959 -10.877  0.00  0.00    +0.000 HD
BRANCH  10  13
ATOM     13  C   UNL     1      -5.413  -6.244  -8.749  0.00  0.00    +0.000 C 
ATOM     14  H   UNL     1      -5.068  -5.221  -8.557  0.00  0.00    +0.000 HD
ATOM     15  H   UNL     1      -4.987  -6.883  -7.967  0.00  0.00    +0.000 HD
BRANCH  13  16
ATOM     16  C   UNL     1      -6.929  -6.282  -8.656  0.00  0.00    +0.000 C 
ATOM     17  H   UNL     1      -7.360  -5.299  -8.875  0.00  0.00    +0.000 HD
ATOM     18  H   UNL     1      -7.254  -6.585  -7.655  0.00  0.00    +0.000 HD
ATOM     19  H   UNL     1      -7.336  -6.999  -9.377  0.00  0.00    +0.000 HD
ENDBRANCH  13  16
ENDBRANCH  10  13
ENDBRANCH   7  10
ENDBRANCH   4   7
ENDBRANCH   1   4
BRANCH   1  20
ATOM     20  C   UNL     1      -4.106 -10.459  -8.870  0.00  0.00    +0.000 C 
ATOM     21  H   UNL     1      -3.296 -10.634  -8.153  0.00  0.00    +0.000 HD
ATOM     22  H   UNL     1      -4.336 -11.422  -9.341  0.00  0.00    +0.000 HD
BRANCH  20  23
ATOM     23  C   UNL     1      -5.344  -9.937  -8.137  0.00  0.00    +0.000 C 
ATOM     24  H   UNL     1      -6.174 -10.642  -8.264  0.00  0.00    +0.000 HD
ATOM     25  H   UNL     1      -5.659  -8.983  -8.578  0.00  0.00    +0.000 HD
BRANCH  23  26
ATOM     26  C   UNL     1      -5.063  -9.739  -6.644  0.00  0.00    +0.000 C 
ATOM     27  H   UNL     1      -5.028 -10.711  -6.135  0.00  0.00    +0.000 HD
ATOM     28  H   UNL     1      -4.071  -9.292  -6.502  0.00  0.00    +0.000 HD
BRANCH  26  29
ATOM     29  C   UNL     1      -6.108  -8.857  -5.973  0.00  0.00    +0.000 C 
ATOM     30  H   UNL     1      -7.112  -9.268  -6.121  0.00  0.00    +0.000 HD
ATOM     31  H   UNL     1      -6.079  -7.842  -6.384  0.00  0.00    +0.000 HD
BRANCH  29  32
ATOM     32  O   UNL     1      -5.856  -8.783  -4.577  0.00  0.00    +0.000 OA
ATOM     33  H   UNL     1      -6.638  -8.374  -4.167  0.00  0.00    +0.000 HD
ENDBRANCH  29  32
ENDBRANCH  26  29
ENDBRANCH  23  26
ENDBRANCH  20  23
ENDBRANCH   1  20
TORSDOF 10
ENDMDL
MODEL 3
REMARK VINA RESULT:    -4.042     17.786     19.426
REMARK INTER + INTRA:          -6.840
REMARK INTER:                  -6.400
REMARK INTRA:                  -0.440
REMARK UNBOUND:                -0.672
REMARK  Name = 8174
REMARK  10 active torsions:
REMARK  status: ('A' for Active; 'I' for Inactive)
REMARK    1  A    between atoms: O_1  and  C_10
REMARK    2  A    between atoms: C_2  and  C_3
REMARK    3  A    between atoms: C_2  and  C_4
REMARK    4  A    between atoms: C_3  and  C_5
REMARK    5  A    between atoms: C_4  and  C_6
REMARK    6  A    between atoms: C_5  and  C_7
REMARK    7  A    between atoms: C_6  and  C_8
REMARK    8  A    between atoms: C_7  and  C_9
REMARK    9  A    between atoms: C_8  and  C_10
REMARK   10  A    between atoms: C_9  and  C_11
REMARK                            x       y       z     vdW  Elec       q    Type
REMARK                         _______ _______ _______ _____ _____    ______ ____
ROOT
ATOM      1  C   UNL     1       7.962 -13.067  -0.540  0.00  0.00    +0.000 C 
ATOM      2  H   UNL     1       8.650 -13.726   0.006  0.00  0.00    +0.000 HD
ATOM      3  H   UNL     1       7.432 -13.697  -1.266  0.00  0.00    +0.000 HD
ENDROOT
BRANCH   1   4
ATOM      4  C   UNL     1       8.779 -12.014  -1.294  0.00  0.00    +0.000 C 
ATOM      5  H   UNL     1       8.157 -11.572  -2.081  0.00  0.00    +0.000 HD
ATOM      6  H   UNL     1       9.618 -12.512  -1.797  0.00  0.00    +0.000 HD
BRANCH   4   7
ATOM      7  C   UNL     1       9.323 -10.905  -0.393  0.00  0.00    +0.000 C 
ATOM      8  H   UNL     1       9.058 -11.114   0.650  0.00  0.00    +0.000 HD
ATOM      9  H   UNL     1      10.419 -10.891  -0.452  0.00  0.00    +0.000 HD
BRANCH   7  10
ATOM     10  C   UNL     1       8.771  -9.537  -0.804  0.00  0.00    +0.000 C 
ATOM     11  H   UNL     1       8.023  -9.207  -0.073  0.00  0.00    +0.000 HD
ATOM     12  H   UNL     1       8.260  -9.624  -1.771  0.00  0.00    +0.000 HD
BRANCH  10  13
ATOM     13  C   UNL     1       9.885  -8.495  -0.908  0.00  0.00    +0.000 C 
ATOM     14  H   UNL     1      10.180  -8.164   0.095  0.00  0.00    +0.000 HD
ATOM     15  H   UNL     1       9.521  -7.613  -1.447  0.00  0.00    +0.000 HD
BRANCH  13  16
ATOM     16  C   UNL     1      11.104  -9.053  -1.624  0.00  0.00    +0.000 C 
ATOM     17  H   UNL     1      11.609  -9.806  -1.010  0.00  0.00    +0.000 HD
ATOM     18  H   UNL     1      11.822  -8.258  -1.854  0.00  0.00    +0.000 HD
ATOM     19  H   UNL     1      10.808  -9.525  -2.566  0.00  0.00    +0.000 HD
ENDBRANCH  13  16
ENDBRANCH  10  13
ENDBRANCH   7  10
ENDBRANCH   4   7
ENDBRANCH   1   4
BRANCH   1  20
ATOM     20  C   UNL     1       6.949 -12.467   0.437  0.00  0.00    +0.000 C 
ATOM     21  H   UNL     1       7.374 -11.567   0.896  0.00  0.00    +0.000 HD
ATOM     22  H   UNL     1       6.752 -13.182   1.245  0.00  0.00    +0.000 HD
BRANCH  20  23
ATOM     23  C   UNL     1       5.638 -12.118  -0.271  0.00  0.00    +0.000 C 
ATOM     24  H   UNL     1       5.496 -12.779  -1.135  0.00  0.00    +0.000 HD
ATOM     25  H   UNL     1       5.688 -11.091  -0.654  0.00  0.00    +0.000 HD
BRANCH  23  26
ATOM     26  C   UNL     1       4.442 -12.250   0.677  0.00  0.00    +0.000 C 
ATOM     27  H   UNL     1       4.163 -11.265   1.071  0.00  0.00    +0.000 HD
ATOM     28  H   UNL     1       3.563 -12.612   0.129  0.00  0.00    +0.000 HD
BRANCH  26  29
ATOM     29  C   UNL     1       4.728 -13.194   1.838  0.00  0.00    +0.000 C 
ATOM     30  H   UNL     1       5.790 -13.461   1.864  0.00  0.00    +0.000 HD
ATOM     31  H   UNL     1       4.136 -14.110   1.746  0.00  0.00    +0.000 HD
BRANCH  29  32
ATOM     32  O   UNL     1       4.394 -12.565   3.067  0.00  0.00    +0.000 OA
ATOM     33  H   UNL     1       5.037 -11.848   3.205  0.00  0.00    +0.000 HD
ENDBRANCH  29  32
ENDBRANCH  26  29
ENDBRANCH  23  26
ENDBRANCH  20  23
ENDBRANCH   1  20
TORSDOF 10
ENDMDL
MODEL 4
REMARK VINA RESULT:    -3.985     24.521     27.229
REMARK INTER + INTRA:          -6.755
REMARK INTER:                  -6.509
REMARK INTRA:                  -0.246
REMARK UNBOUND:                -0.672
REMARK  Name = 8174
REMARK  10 active torsions:
REMARK  status: ('A' for Active; 'I' for Inactive)
REMARK    1  A    between atoms: O_1  and  C_10
REMARK    2  A    between atoms: C_2  and  C_3
REMARK    3  A    between atoms: C_2  and  C_4
REMARK    4  A    between atoms: C_3  and  C_5
REMARK    5  A    between atoms: C_4  and  C_6
REMARK    6  A    between atoms: C_5  and  C_7
REMARK    7  A    between atoms: C_6  and  C_8
REMARK    8  A    between atoms: C_7  and  C_9
REMARK    9  A    between atoms: C_8  and  C_10
REMARK   10  A    between atoms: C_9  and  C_11
REMARK                            x       y       z     vdW  Elec       q    Type
REMARK                         _______ _______ _______ _____ _____    ______ ____
ROOT
ATOM      1  C   UNL     1       8.212  12.873  -1.276  0.00  0.00    +0.000 C 
ATOM      2  H   UNL     1       8.689  12.855  -0.287  0.00  0.00    +0.000 HD
ATOM      3  H   UNL     1       8.495  13.823  -1.746  0.00  0.00    +0.000 HD
ENDROOT
BRANCH   1   4
ATOM      4  C   UNL     1       6.692  12.841  -1.092  0.00  0.00    +0.000 C 
ATOM      5  H   UNL     1       6.228  12.431  -1.997  0.00  0.00    +0.000 HD
ATOM      6  H   UNL     1       6.327  13.870  -0.988  0.00  0.00    +0.000 HD
BRANCH   4   7
ATOM      7  C   UNL     1       6.243  12.026   0.122  0.00  0.00    +0.000 C 
ATOM      8  H   UNL     1       5.181  11.772   0.023  0.00  0.00    +0.000 HD
ATOM      9  H   UNL     1       6.800  11.081   0.153  0.00  0.00    +0.000 HD
BRANCH   7  10
ATOM     10  C   UNL     1       6.472  12.798   1.424  0.00  0.00    +0.000 C 
ATOM     11  H   UNL     1       6.079  13.817   1.322  0.00  0.00    +0.000 HD
ATOM     12  H   UNL     1       7.550  12.886   1.613  0.00  0.00    +0.000 HD
BRANCH  10  13
ATOM     13  C   UNL     1       5.802  12.103   2.609  0.00  0.00    +0.000 C 
ATOM     14  H   UNL     1       6.306  12.388   3.541  0.00  0.00    +0.000 HD
ATOM     15  H   UNL     1       5.900  11.016   2.507  0.00  0.00    +0.000 HD
BRANCH  13  16
ATOM     16  C   UNL     1       4.330  12.468   2.709  0.00  0.00    +0.000 C 
ATOM     17  H   UNL     1       3.721  11.814   2.076  0.00  0.00    +0.000 HD
ATOM     18  H   UNL     1       4.160  13.504   2.398  0.00  0.00    +0.000 HD
ATOM     19  H   UNL     1       3.983  12.361   3.742  0.00  0.00    +0.000 HD
ENDBRANCH  13  16
ENDBRANCH  10  13
ENDBRANCH   7  10
ENDBRANCH   4   7
ENDBRANCH   1   4
BRANCH   1  20
ATOM     20  C   UNL     1       8.748  11.716  -2.122  0.00  0.00    +0.000 C 
ATOM     21  H   UNL     1       8.214  10.796  -1.860  0.00  0.00    +0.000 HD
ATOM     22  H   UNL     1       9.808  11.554  -1.890  0.00  0.00    +0.000 HD
BRANCH  20  23
ATOM     23  C   UNL     1       8.586  12.003  -3.616  0.00  0.00    +0.000 C 
ATOM     24  H   UNL     1       7.825  12.778  -3.764  0.00  0.00    +0.000 HD
ATOM     25  H   UNL     1       8.232  11.099  -4.128  0.00  0.00    +0.000 HD
BRANCH  23  26
ATOM     26  C   UNL     1       9.909  12.456  -4.241  0.00  0.00    +0.000 C 
ATOM     27  H   UNL     1      10.149  13.476  -3.917  0.00  0.00    +0.000 HD
ATOM     28  H   UNL     1      10.733  11.827  -3.881  0.00  0.00    +0.000 HD
BRANCH  26  29
ATOM     29  C   UNL     1       9.874  12.407  -5.764  0.00  0.00    +0.000 C 
ATOM     30  H   UNL     1       9.038  13.001  -6.149  0.00  0.00    +0.000 HD
ATOM     31  H   UNL     1       9.765  11.375  -6.114  0.00  0.00    +0.000 HD
BRANCH  29  32
ATOM     32  O   UNL     1      11.081  12.936  -6.294  0.00  0.00    +0.000 OA
ATOM     33  H   UNL     1      11.536  12.207  -6.750  0.00  0.00    +0.000 HD
ENDBRANCH  29  32
ENDBRANCH  26  29
ENDBRANCH  23  26
ENDBRANCH  20  23
ENDBRANCH   1  20
TORSDOF 10
ENDMDL
MODEL 5
REMARK VINA RESULT:    -3.966     24.659     26.167
REMARK INTER + INTRA:          -6.726
REMARK INTER:                  -6.126
REMARK INTRA:                  -0.600
REMARK UNBOUND:                -0.672
REMARK  Name = 8174
REMARK  10 active torsions:
REMARK  status: ('A' for Active; 'I' for Inactive)
REMARK    1  A    between atoms: O_1  and  C_10
REMARK    2  A    between atoms: C_2  and  C_3
REMARK    3  A    between atoms: C_2  and  C_4
REMARK    4  A    between atoms: C_3  and  C_5
REMARK    5  A    between atoms: C_4  and  C_6
REMARK    6  A    between atoms: C_5  and  C_7
REMARK    7  A    between atoms: C_6  and  C_8
REMARK    8  A    between atoms: C_7  and  C_9
REMARK    9  A    between atoms: C_8  and  C_10
REMARK   10  A    between atoms: C_9  and  C_11
REMARK                            x       y       z     vdW  Elec       q    Type
REMARK                         _______ _______ _______ _____ _____    ______ ____
ROOT
ATOM      1  C   UNL     1      -4.339 -10.048  -9.072  0.00  0.00    +0.000 C 
ATOM      2  H   UNL     1      -4.324 -11.079  -9.449  0.00  0.00    +0.000 HD
ATOM      3  H   UNL     1      -5.369  -9.686  -9.184  0.00  0.00    +0.000 HD
ENDROOT
BRANCH   1   4
ATOM      4  C   UNL     1      -3.411  -9.191  -9.938  0.00  0.00    +0.000 C 
ATOM      5  H   UNL     1      -3.975  -8.804 -10.796  0.00  0.00    +0.000 HD
ATOM      6  H   UNL     1      -2.617  -9.830 -10.344  0.00  0.00    +0.000 HD
BRANCH   4   7
ATOM      7  C   UNL     1      -2.777  -8.024  -9.180  0.00  0.00    +0.000 C 
ATOM      8  H   UNL     1      -2.987  -8.123  -8.108  0.00  0.00    +0.000 HD
ATOM      9  H   UNL     1      -1.687  -8.060  -9.300  0.00  0.00    +0.000 HD
BRANCH   7  10
ATOM     10  C   UNL     1      -3.303  -6.680  -9.690  0.00  0.00    +0.000 C 
ATOM     11  H   UNL     1      -2.472  -5.971  -9.785  0.00  0.00    +0.000 HD
ATOM     12  H   UNL     1      -4.004  -6.259  -8.959  0.00  0.00    +0.000 HD
BRANCH  10  13
ATOM     13  C   UNL     1      -4.006  -6.833 -11.039  0.00  0.00    +0.000 C 
ATOM     14  H   UNL     1      -4.985  -6.340 -11.008  0.00  0.00    +0.000 HD
ATOM     15  H   UNL     1      -4.183  -7.895 -11.247  0.00  0.00    +0.000 HD
BRANCH  13  16
ATOM     16  C   UNL     1      -3.183  -6.232 -12.167  0.00  0.00    +0.000 C 
ATOM     17  H   UNL     1      -2.488  -5.477 -11.785  0.00  0.00    +0.000 HD
ATOM     18  H   UNL     1      -3.828  -5.759 -12.914  0.00  0.00    +0.000 HD
ATOM     19  H   UNL     1      -2.599  -7.011 -12.667  0.00  0.00    +0.000 HD
ENDBRANCH  13  16
ENDBRANCH  10  13
ENDBRANCH   7  10
ENDBRANCH   4   7
ENDBRANCH   1   4
BRANCH   1  20
ATOM     20  C   UNL     1      -3.966 -10.043  -7.588  0.00  0.00    +0.000 C 
ATOM     21  H   UNL     1      -3.336  -9.171  -7.374  0.00  0.00    +0.000 HD
ATOM     22  H   UNL     1      -3.373 -10.936  -7.357  0.00  0.00    +0.000 HD
BRANCH  20  23
ATOM     23  C   UNL     1      -5.214 -10.010  -6.704  0.00  0.00    +0.000 C 
ATOM     24  H   UNL     1      -4.921 -10.059  -5.648  0.00  0.00    +0.000 HD
ATOM     25  H   UNL     1      -5.834 -10.892  -6.909  0.00  0.00    +0.000 HD
BRANCH  23  26
ATOM     26  C   UNL     1      -6.036  -8.741  -6.950  0.00  0.00    +0.000 C 
ATOM     27  H   UNL     1      -5.452  -8.022  -7.538  0.00  0.00    +0.000 HD
ATOM     28  H   UNL     1      -6.921  -8.975  -7.555  0.00  0.00    +0.000 HD
BRANCH  26  29
ATOM     29  C   UNL     1      -6.482  -8.082  -5.650  0.00  0.00    +0.000 C 
ATOM     30  H   UNL     1      -7.568  -8.161  -5.531  0.00  0.00    +0.000 HD
ATOM     31  H   UNL     1      -6.202  -7.024  -5.637  0.00  0.00    +0.000 HD
BRANCH  29  32
ATOM     32  O   UNL     1      -5.863  -8.724  -4.545  0.00  0.00    +0.000 OA
ATOM     33  H   UNL     1      -6.507  -9.360  -4.187  0.00  0.00    +0.000 HD
ENDBRANCH  29  32
ENDBRANCH  26  29
ENDBRANCH  23  26
ENDBRANCH  20  23
ENDBRANCH   1  20
TORSDOF 10
ENDMDL
MODEL 6
REMARK VINA RESULT:    -3.927     24.538     27.902
REMARK INTER + INTRA:          -6.666
REMARK INTER:                  -6.304
REMARK INTRA:                  -0.362
REMARK UNBOUND:                -0.672
REMARK  Name = 8174
REMARK  10 active torsions:
REMARK  status: ('A' for Active; 'I' for Inactive)
REMARK    1  A    between atoms: O_1  and  C_10
REMARK    2  A    between atoms: C_2  and  C_3
REMARK    3  A    between atoms: C_2  and  C_4
REMARK    4  A    between atoms: C_3  and  C_5
REMARK    5  A    between atoms: C_4  and  C_6
REMARK    6  A    between atoms: C_5  and  C_7
REMARK    7  A    between atoms: C_6  and  C_8
REMARK    8  A    between atoms: C_7  and  C_9
REMARK    9  A    between atoms: C_8  and  C_10
REMARK   10  A    between atoms: C_9  and  C_11
REMARK                            x       y       z     vdW  Elec       q    Type
REMARK                         _______ _______ _______ _____ _____    ______ ____
ROOT
ATOM      1  C   UNL     1       8.255  12.716  -1.475  0.00  0.00    +0.000 C 
ATOM      2  H   UNL     1       8.958  13.558  -1.438  0.00  0.00    +0.000 HD
ATOM      3  H   UNL     1       8.193  12.311  -0.457  0.00  0.00    +0.000 HD
ENDROOT
BRANCH   1   4
ATOM      4  C   UNL     1       8.821  11.640  -2.407  0.00  0.00    +0.000 C 
ATOM      5  H   UNL     1       8.234  10.721  -2.294  0.00  0.00    +0.000 HD
ATOM      6  H   UNL     1       9.844  11.402  -2.092  0.00  0.00    +0.000 HD
BRANCH   4   7
ATOM      7  C   UNL     1       8.834  12.055  -3.879  0.00  0.00    +0.000 C 
ATOM      8  H   UNL     1       8.643  11.180  -4.511  0.00  0.00    +0.000 HD
ATOM      9  H   UNL     1       8.023  12.771  -4.064  0.00  0.00    +0.000 HD
BRANCH   7  10
ATOM     10  C   UNL     1      10.173  12.690  -4.264  0.00  0.00    +0.000 C 
ATOM     11  H   UNL     1      10.992  12.145  -3.779  0.00  0.00    +0.000 HD
ATOM     12  H   UNL     1      10.209  13.722  -3.893  0.00  0.00    +0.000 HD
BRANCH  10  13
ATOM     13  C   UNL     1      10.377  12.686  -5.778  0.00  0.00    +0.000 C 
ATOM     14  H   UNL     1      11.069  11.882  -6.059  0.00  0.00    +0.000 HD
ATOM     15  H   UNL     1      10.833  13.631  -6.095  0.00  0.00    +0.000 HD
BRANCH  13  16
ATOM     16  C   UNL     1       9.064  12.490  -6.517  0.00  0.00    +0.000 C 
ATOM     17  H   UNL     1       8.237  12.341  -5.814  0.00  0.00    +0.000 HD
ATOM     18  H   UNL     1       9.112  11.620  -7.180  0.00  0.00    +0.000 HD
ATOM     19  H   UNL     1       8.837  13.369  -7.128  0.00  0.00    +0.000 HD
ENDBRANCH  13  16
ENDBRANCH  10  13
ENDBRANCH   7  10
ENDBRANCH   4   7
ENDBRANCH   1   4
BRANCH   1  20
ATOM     20  C   UNL     1       6.875  13.223  -1.897  0.00  0.00    +0.000 C 
ATOM     21  H   UNL     1       6.520  12.642  -2.756  0.00  0.00    +0.000 HD
ATOM     22  H   UNL     1       6.952  14.268  -2.222  0.00  0.00    +0.000 HD
BRANCH  20  23
ATOM     23  C   UNL     1       5.870  13.115  -0.748  0.00  0.00    +0.000 C 
ATOM     24  H   UNL     1       4.858  12.990  -1.151  0.00  0.00    +0.000 HD
ATOM     25  H   UNL     1       5.875  14.045  -0.166  0.00  0.00    +0.000 HD
BRANCH  23  26
ATOM     26  C   UNL     1       6.205  11.937   0.173  0.00  0.00    +0.000 C 
ATOM     27  H   UNL     1       5.615  11.057  -0.112  0.00  0.00    +0.000 HD
ATOM     28  H   UNL     1       7.256  11.646   0.048  0.00  0.00    +0.000 HD
BRANCH  26  29
ATOM     29  C   UNL     1       5.948  12.261   1.640  0.00  0.00    +0.000 C 
ATOM     30  H   UNL     1       5.783  13.335   1.773  0.00  0.00    +0.000 HD
ATOM     31  H   UNL     1       6.799  11.956   2.257  0.00  0.00    +0.000 HD
BRANCH  29  32
ATOM     32  O   UNL     1       4.793  11.570   2.093  0.00  0.00    +0.000 OA
ATOM     33  H   UNL     1       4.653  10.822   1.488  0.00  0.00    +0.000 HD
ENDBRANCH  29  32
ENDBRANCH  26  29
ENDBRANCH  23  26
ENDBRANCH  20  23
ENDBRANCH   1  20
TORSDOF 10
ENDMDL
MODEL 7
REMARK VINA RESULT:    -3.864     23.612     25.270
REMARK INTER + INTRA:          -6.569
REMARK INTER:                  -6.158
REMARK INTRA:                  -0.411
REMARK UNBOUND:                -0.672
REMARK  Name = 8174
REMARK  10 active torsions:
REMARK  status: ('A' for Active; 'I' for Inactive)
REMARK    1  A    between atoms: O_1  and  C_10
REMARK    2  A    between atoms: C_2  and  C_3
REMARK    3  A    between atoms: C_2  and  C_4
REMARK    4  A    between atoms: C_3  and  C_5
REMARK    5  A    between atoms: C_4  and  C_6
REMARK    6  A    between atoms: C_5  and  C_7
REMARK    7  A    between atoms: C_6  and  C_8
REMARK    8  A    between atoms: C_7  and  C_9
REMARK    9  A    between atoms: C_8  and  C_10
REMARK   10  A    between atoms: C_9  and  C_11
REMARK                            x       y       z     vdW  Elec       q    Type
REMARK                         _______ _______ _______ _____ _____    ______ ____
ROOT
ATOM      1  C   UNL     1      11.263  -8.679  -6.755  0.00  0.00    +0.000 C 
ATOM      2  H   UNL     1      11.925  -8.248  -7.517  0.00  0.00    +0.000 HD
ATOM      3  H   UNL     1      10.347  -8.074  -6.753  0.00  0.00    +0.000 HD
ENDROOT
BRANCH   1   4
ATOM      4  C   UNL     1      11.941  -8.565  -5.387  0.00  0.00    +0.000 C 
ATOM      5  H   UNL     1      11.189  -8.296  -4.635  0.00  0.00    +0.000 HD
ATOM      6  H   UNL     1      12.663  -7.740  -5.420  0.00  0.00    +0.000 HD
BRANCH   4   7
ATOM      7  C   UNL     1      12.659  -9.844  -4.954  0.00  0.00    +0.000 C 
ATOM      8  H   UNL     1      12.107 -10.718  -5.320  0.00  0.00    +0.000 HD
ATOM      9  H   UNL     1      13.656  -9.875  -5.412  0.00  0.00    +0.000 HD
BRANCH   7  10
ATOM     10  C   UNL     1      12.794  -9.914  -3.431  0.00  0.00    +0.000 C 
ATOM     11  H   UNL     1      13.188  -8.963  -3.052  0.00  0.00    +0.000 HD
ATOM     12  H   UNL     1      13.518 -10.693  -3.163  0.00  0.00    +0.000 HD
BRANCH  10  13
ATOM     13  C   UNL     1      11.451 -10.216  -2.766  0.00  0.00    +0.000 C 
ATOM     14  H   UNL     1      11.492 -11.193  -2.269  0.00  0.00    +0.000 HD
ATOM     15  H   UNL     1      10.664 -10.273  -3.527  0.00  0.00    +0.000 HD
BRANCH  13  16
ATOM     16  C   UNL     1      11.084  -9.154  -1.743  0.00  0.00    +0.000 C 
ATOM     17  H   UNL     1      11.716  -9.234  -0.852  0.00  0.00    +0.000 HD
ATOM     18  H   UNL     1      10.038  -9.251  -1.433  0.00  0.00    +0.000 HD
ATOM     19  H   UNL     1      11.221  -8.155  -2.168  0.00  0.00    +0.000 HD
ENDBRANCH  13  16
ENDBRANCH  10  13
ENDBRANCH   7  10
ENDBRANCH   4   7
ENDBRANCH   1   4
BRANCH   1  20
ATOM     20  C   UNL     1      10.911 -10.117  -7.143  0.00  0.00    +0.000 C 
ATOM     21  H   UNL     1      11.080 -10.777  -6.284  0.00  0.00    +0.000 HD
ATOM     22  H   UNL     1      11.577 -10.453  -7.947  0.00  0.00    +0.000 HD
BRANCH  20  23
ATOM     23  C   UNL     1       9.455 -10.226  -7.602  0.00  0.00    +0.000 C 
ATOM     24  H   UNL     1       8.824  -9.569  -6.991  0.00  0.00    +0.000 HD
ATOM     25  H   UNL     1       9.097 -11.252  -7.450  0.00  0.00    +0.000 HD
BRANCH  23  26
ATOM     26  C   UNL     1       9.309  -9.850  -9.080  0.00  0.00    +0.000 C 
ATOM     27  H   UNL     1      10.279  -9.542  -9.488  0.00  0.00    +0.000 HD
ATOM     28  H   UNL     1       9.002 -10.726  -9.665  0.00  0.00    +0.000 HD
BRANCH  26  29
ATOM     29  C   UNL     1       8.296  -8.731  -9.291  0.00  0.00    +0.000 C 
ATOM     30  H   UNL     1       8.757  -7.890  -9.820  0.00  0.00    +0.000 HD
ATOM     31  H   UNL     1       7.908  -8.374  -8.331  0.00  0.00    +0.000 HD
BRANCH  29  32
ATOM     32  O   UNL     1       7.206  -9.205 -10.068  0.00  0.00    +0.000 OA
ATOM     33  H   UNL     1       7.493  -9.194 -10.998  0.00  0.00    +0.000 HD
ENDBRANCH  29  32
ENDBRANCH  26  29
ENDBRANCH  23  26
ENDBRANCH  20  23
ENDBRANCH   1  20
TORSDOF 10
ENDMDL
MODEL 8
REMARK VINA RESULT:    -3.758     21.429     22.966
REMARK INTER + INTRA:          -6.408
REMARK INTER:                  -6.061
REMARK INTRA:                  -0.347
REMARK UNBOUND:                -0.672
REMARK  Name = 8174
REMARK  10 active torsions:
REMARK  status: ('A' for Active; 'I' for Inactive)
REMARK    1  A    between atoms: O_1  and  C_10
REMARK    2  A    between atoms: C_2  and  C_3
REMARK    3  A    between atoms: C_2  and  C_4
REMARK    4  A    between atoms: C_3  and  C_5
REMARK    5  A    between atoms: C_4  and  C_6
REMARK    6  A    between atoms: C_5  and  C_7
REMARK    7  A    between atoms: C_6  and  C_8
REMARK    8  A    between atoms: C_7  and  C_9
REMARK    9  A    between atoms: C_8  and  C_10
REMARK   10  A    between atoms: C_9  and  C_11
REMARK                            x       y       z     vdW  Elec       q    Type
REMARK                         _______ _______ _______ _____ _____    ______ ____
ROOT
ATOM      1  C   UNL     1      12.713  -9.706  -2.896  0.00  0.00    +0.000 C 
ATOM      2  H   UNL     1      13.466 -10.013  -2.158  0.00  0.00    +0.000 HD
ATOM      3  H   UNL     1      12.828  -8.623  -3.032  0.00  0.00    +0.000 HD
ENDROOT
BRANCH   1   4
ATOM      4  C   UNL     1      11.320  -9.993  -2.331  0.00  0.00    +0.000 C 
ATOM      5  H   UNL     1      11.346 -10.936  -1.771  0.00  0.00    +0.000 HD
ATOM      6  H   UNL     1      10.623 -10.141  -3.166  0.00  0.00    +0.000 HD
BRANCH   4   7
ATOM      7  C   UNL     1      10.788  -8.881  -1.425  0.00  0.00    +0.000 C 
ATOM      8  H   UNL     1      11.626  -8.293  -1.033  0.00  0.00    +0.000 HD
ATOM      9  H   UNL     1      10.162  -8.199  -2.015  0.00  0.00    +0.000 HD
BRANCH   7  10
ATOM     10  C   UNL     1       9.968  -9.454  -0.266  0.00  0.00    +0.000 C 
ATOM     11  H   UNL     1      10.151  -8.865   0.641  0.00  0.00    +0.000 HD
ATOM     12  H   UNL     1      10.298 -10.480  -0.056  0.00  0.00    +0.000 HD
BRANCH  10  13
ATOM     13  C   UNL     1       8.474  -9.455  -0.587  0.00  0.00    +0.000 C 
ATOM     14  H   UNL     1       8.307  -9.030  -1.585  0.00  0.00    +0.000 HD
ATOM     15  H   UNL     1       7.940  -8.820   0.129  0.00  0.00    +0.000 HD
BRANCH  13  16
ATOM     16  C   UNL     1       7.895 -10.859  -0.542  0.00  0.00    +0.000 C 
ATOM     17  H   UNL     1       7.687 -11.165   0.489  0.00  0.00    +0.000 HD
ATOM     18  H   UNL     1       8.587 -11.584  -0.983  0.00  0.00    +0.000 HD
ATOM     19  H   UNL     1       6.956 -10.900  -1.104  0.00  0.00    +0.000 HD
ENDBRANCH  13  16
ENDBRANCH  10  13
ENDBRANCH   7  10
ENDBRANCH   4   7
ENDBRANCH   1   4
BRANCH   1  20
ATOM     20  C   UNL     1      12.989 -10.409  -4.226  0.00  0.00    +0.000 C 
ATOM     21  H   UNL     1      12.135 -11.046  -4.485  0.00  0.00    +0.000 HD
ATOM     22  H   UNL     1      13.862 -11.064  -4.120  0.00  0.00    +0.000 HD
BRANCH  20  23
ATOM     23  C   UNL     1      13.238  -9.396  -5.346  0.00  0.00    +0.000 C 
ATOM     24  H   UNL     1      13.700  -9.899  -6.204  0.00  0.00    +0.000 HD
ATOM     25  H   UNL     1      13.945  -8.631  -5.000  0.00  0.00    +0.000 HD
BRANCH  23  26
ATOM     26  C   UNL     1      11.935  -8.723  -5.787  0.00  0.00    +0.000 C 
ATOM     27  H   UNL     1      11.088  -9.143  -5.231  0.00  0.00    +0.000 HD
ATOM     28  H   UNL     1      11.957  -7.655  -5.537  0.00  0.00    +0.000 HD
BRANCH  26  29
ATOM     29  C   UNL     1      11.683  -8.879  -7.282  0.00  0.00    +0.000 C 
ATOM     30  H   UNL     1      12.538  -8.509  -7.857  0.00  0.00    +0.000 HD
ATOM     31  H   UNL     1      10.788  -8.324  -7.583  0.00  0.00    +0.000 HD
BRANCH  29  32
ATOM     32  O   UNL     1      11.488 -10.249  -7.600  0.00  0.00    +0.000 OA
ATOM     33  H   UNL     1      12.371 -10.651  -7.681  0.00  0.00    +0.000 HD
ENDBRANCH  29  32
ENDBRANCH  26  29
ENDBRANCH  23  26
ENDBRANCH  20  23
ENDBRANCH   1  20
TORSDOF 10
ENDMDL
MODEL 9
REMARK VINA RESULT:    -3.731     24.443     25.865
REMARK INTER + INTRA:          -6.366
REMARK INTER:                  -5.831
REMARK INTRA:                  -0.534
REMARK UNBOUND:                -0.672
REMARK  Name = 8174
REMARK  10 active torsions:
REMARK  status: ('A' for Active; 'I' for Inactive)
REMARK    1  A    between atoms: O_1  and  C_10
REMARK    2  A    between atoms: C_2  and  C_3
REMARK    3  A    between atoms: C_2  and  C_4
REMARK    4  A    between atoms: C_3  and  C_5
REMARK    5  A    between atoms: C_4  and  C_6
REMARK    6  A    between atoms: C_5  and  C_7
REMARK    7  A    between atoms: C_6  and  C_8
REMARK    8  A    between atoms: C_7  and  C_9
REMARK    9  A    between atoms: C_8  and  C_10
REMARK   10  A    between atoms: C_9  and  C_11
REMARK                            x       y       z     vdW  Elec       q    Type
REMARK                         _______ _______ _______ _____ _____    ______ ____
ROOT
ATOM      1  C   UNL     1      -7.068  -5.989  -8.584  0.00  0.00    +0.000 C 
ATOM      2  H   UNL     1      -7.426  -6.454  -9.511  0.00  0.00    +0.000 HD
ATOM      3  H   UNL     1      -7.377  -4.936  -8.618  0.00  0.00    +0.000 HD
ENDROOT
BRANCH   1   4
ATOM      4  C   UNL     1      -5.539  -6.059  -8.552  0.00  0.00    +0.000 C 
ATOM      5  H   UNL     1      -5.221  -6.588  -7.645  0.00  0.00    +0.000 HD
ATOM      6  H   UNL     1      -5.140  -5.040  -8.480  0.00  0.00    +0.000 HD
BRANCH   4   7
ATOM      7  C   UNL     1      -4.935  -6.748  -9.778  0.00  0.00    +0.000 C 
ATOM      8  H   UNL     1      -5.301  -7.779  -9.838  0.00  0.00    +0.000 HD
ATOM      9  H   UNL     1      -5.269  -6.232 -10.687  0.00  0.00    +0.000 HD
BRANCH   7  10
ATOM     10  C   UNL     1      -3.406  -6.742  -9.719  0.00  0.00    +0.000 C 
ATOM     11  H   UNL     1      -3.067  -5.964  -9.024  0.00  0.00    +0.000 HD
ATOM     12  H   UNL     1      -3.002  -6.489 -10.707  0.00  0.00    +0.000 HD
BRANCH  10  13
ATOM     13  C   UNL     1      -2.860  -8.100  -9.278  0.00  0.00    +0.000 C 
ATOM     14  H   UNL     1      -2.925  -8.192  -8.187  0.00  0.00    +0.000 HD
ATOM     15  H   UNL     1      -1.801  -8.181  -9.548  0.00  0.00    +0.000 HD
BRANCH  13  16
ATOM     16  C   UNL     1      -3.629  -9.244  -9.918  0.00  0.00    +0.000 C 
ATOM     17  H   UNL     1      -3.215  -9.493 -10.901  0.00  0.00    +0.000 HD
ATOM     18  H   UNL     1      -4.685  -8.985 -10.045  0.00  0.00    +0.000 HD
ATOM     19  H   UNL     1      -3.572 -10.138  -9.289  0.00  0.00    +0.000 HD
ENDBRANCH  13  16
ENDBRANCH  10  13
ENDBRANCH   7  10
ENDBRANCH   4   7
ENDBRANCH   1   4
BRANCH   1  20
ATOM     20  C   UNL     1      -7.734  -6.667  -7.385  0.00  0.00    +0.000 C 
ATOM     21  H   UNL     1      -8.503  -7.363  -7.740  0.00  0.00    +0.000 HD
ATOM     22  H   UNL     1      -8.240  -5.911  -6.771  0.00  0.00    +0.000 HD
BRANCH  20  23
ATOM     23  C   UNL     1      -6.708  -7.418  -6.533  0.00  0.00    +0.000 C 
ATOM     24  H   UNL     1      -6.864  -7.184  -5.473  0.00  0.00    +0.000 HD
ATOM     25  H   UNL     1      -5.697  -7.083  -6.794  0.00  0.00    +0.000 HD
BRANCH  23  26
ATOM     26  C   UNL     1      -6.814  -8.932  -6.745  0.00  0.00    +0.000 C 
ATOM     27  H   UNL     1      -7.834  -9.272  -6.530  0.00  0.00    +0.000 HD
ATOM     28  H   UNL     1      -6.631  -9.180  -7.798  0.00  0.00    +0.000 HD
BRANCH  26  29
ATOM     29  C   UNL     1      -5.831  -9.705  -5.874  0.00  0.00    +0.000 C 
ATOM     30  H   UNL     1      -6.175 -10.734  -5.726  0.00  0.00    +0.000 HD
ATOM     31  H   UNL     1      -5.723  -9.226  -4.895  0.00  0.00    +0.000 HD
BRANCH  29  32
ATOM     32  O   UNL     1      -4.557  -9.744  -6.499  0.00  0.00    +0.000 OA
ATOM     33  H   UNL     1      -4.249 -10.666  -6.462  0.00  0.00    +0.000 HD
ENDBRANCH  29  32
ENDBRANCH  26  29
ENDBRANCH  23  26
ENDBRANCH  20  23
ENDBRANCH   1  20
TORSDOF 10
ENDMDL
MODEL 10
REMARK VINA RESULT:    -3.615     24.968     26.067
REMARK INTER + INTRA:          -6.189
REMARK INTER:                  -5.517
REMARK INTRA:                  -0.672
REMARK UNBOUND:                -0.672
REMARK  Name = 8174
REMARK  10 active torsions:
REMARK  status: ('A' for Active; 'I' for Inactive)
REMARK    1  A    between atoms: O_1  and  C_10
REMARK    2  A    between atoms: C_2  and  C_3
REMARK    3  A    between atoms: C_2  and  C_4
REMARK    4  A    between atoms: C_3  and  C_5
REMARK    5  A    between atoms: C_4  and  C_6
REMARK    6  A    between atoms: C_5  and  C_7
REMARK    7  A    between atoms: C_6  and  C_8
REMARK    8  A    between atoms: C_7  and  C_9
REMARK    9  A    between atoms: C_8  and  C_10
REMARK   10  A    between atoms: C_9  and  C_11
REMARK                            x       y       z     vdW  Elec       q    Type
REMARK                         _______ _______ _______ _____ _____    ______ ____
ROOT
ATOM      1  C   UNL     1      -4.081  -6.829  -9.629  0.00  0.00    +0.000 C 
ATOM      2  H   UNL     1      -3.501  -5.899  -9.686  0.00  0.00    +0.000 HD
ATOM      3  H   UNL     1      -4.338  -6.977  -8.572  0.00  0.00    +0.000 HD
ENDROOT
BRANCH   1   4
ATOM      4  C   UNL     1      -3.201  -7.991 -10.097  0.00  0.00    +0.000 C 
ATOM      5  H   UNL     1      -2.161  -7.795  -9.807  0.00  0.00    +0.000 HD
ATOM      6  H   UNL     1      -3.221  -8.030 -11.193  0.00  0.00    +0.000 HD
BRANCH   4   7
ATOM      7  C   UNL     1      -3.635  -9.347  -9.540  0.00  0.00    +0.000 C 
ATOM      8  H   UNL     1      -4.635  -9.596  -9.914  0.00  0.00    +0.000 HD
ATOM      9  H   UNL     1      -2.952 -10.126  -9.901  0.00  0.00    +0.000 HD
BRANCH   7  10
ATOM     10  C   UNL     1      -3.640  -9.341  -8.009  0.00  0.00    +0.000 C 
ATOM     11  H   UNL     1      -4.058  -8.393  -7.646  0.00  0.00    +0.000 HD
ATOM     12  H   UNL     1      -2.609  -9.402  -7.639  0.00  0.00    +0.000 HD
BRANCH  10  13
ATOM     13  C   UNL     1      -4.452 -10.509  -7.449  0.00  0.00    +0.000 C 
ATOM     14  H   UNL     1      -5.494 -10.200  -7.298  0.00  0.00    +0.000 HD
ATOM     15  H   UNL     1      -4.056 -10.802  -6.470  0.00  0.00    +0.000 HD
BRANCH  13  16
ATOM     16  C   UNL     1      -4.421 -11.707  -8.383  0.00  0.00    +0.000 C 
ATOM     17  H   UNL     1      -5.375 -11.821  -8.908  0.00  0.00    +0.000 HD
ATOM     18  H   UNL     1      -4.220 -12.631  -7.830  0.00  0.00    +0.000 HD
ATOM     19  H   UNL     1      -3.633 -11.583  -9.133  0.00  0.00    +0.000 HD
ENDBRANCH  13  16
ENDBRANCH  10  13
ENDBRANCH   7  10
ENDBRANCH   4   7
ENDBRANCH   1   4
BRANCH   1  20
ATOM     20  C   UNL     1      -5.370  -6.675 -10.440  0.00  0.00    +0.000 C 
ATOM     21  H   UNL     1      -5.600  -7.623 -10.941  0.00  0.00    +0.000 HD
ATOM     22  H   UNL     1      -5.222  -5.921 -11.223  0.00  0.00    +0.000 HD
BRANCH  20  23
ATOM     23  C   UNL     1      -6.541  -6.264  -9.545  0.00  0.00    +0.000 C 
ATOM     24  H   UNL     1      -7.399  -6.921  -9.732  0.00  0.00    +0.000 HD
ATOM     25  H   UNL     1      -6.855  -5.243  -9.794  0.00  0.00    +0.000 HD
BRANCH  23  26
ATOM     26  C   UNL     1      -6.158  -6.331  -8.063  0.00  0.00    +0.000 C 
ATOM     27  H   UNL     1      -5.099  -6.600  -7.960  0.00  0.00    +0.000 HD
ATOM     28  H   UNL     1      -6.262  -5.342  -7.600  0.00  0.00    +0.000 HD
BRANCH  26  29
ATOM     29  C   UNL     1      -7.009  -7.333  -7.293  0.00  0.00    +0.000 C 
ATOM     30  H   UNL     1      -6.910  -8.335  -7.724  0.00  0.00    +0.000 HD
ATOM     31  H   UNL     1      -8.065  -7.042  -7.317  0.00  0.00    +0.000 HD
BRANCH  29  32
ATOM     32  O   UNL     1      -6.588  -7.385  -5.937  0.00  0.00    +0.000 OA
ATOM     33  H   UNL     1      -6.968  -6.609  -5.491  0.00  0.00    +0.000 HD
ENDBRANCH  29  32
ENDBRANCH  26  29
ENDBRANCH  23  26
ENDBRANCH  20  23
ENDBRANCH   1  20
TORSDOF 10
ENDMDL
