MODEL 1
REMARK VINA RESULT:    -4.411      0.000      0.000
REMARK INTER + INTRA:          -8.512
REMARK INTER:                  -7.829
REMARK INTRA:                  -0.683
REMARK UNBOUND:                -1.393
REMARK  Name = 8192
REMARK  11 active torsions:
REMARK  status: ('A' for Active; 'I' for Inactive)
REMARK    1  A    between atoms: C_2  and  C_3
REMARK    2  A    between atoms: C_2  and  C_4
REMARK    3  A    between atoms: C_3  and  C_5
REMARK    4  A    between atoms: C_4  and  C_6
REMARK    5  A    between atoms: C_5  and  C_7
REMARK    6  A    between atoms: C_6  and  C_8
REMARK    7  A    between atoms: C_7  and  C_9
REMARK    8  A    between atoms: C_8  and  C_10
REMARK    9  A    between atoms: C_9  and  C_11
REMARK   10  A    between atoms: C_10  and  C_12
REMARK   11  A    between atoms: C_11  and  C_13
REMARK                            x       y       z     vdW  Elec       q    Type
REMARK                         _______ _______ _______ _____ _____    ______ ____
ROOT
ATOM      1  C   UNL     1       8.750  -9.141  -0.494  0.00  0.00    +0.000 C 
ATOM      2  H   UNL     1       8.468  -8.568   0.396  0.00  0.00    +0.000 HD
ATOM      3  H   UNL     1       8.563  -8.501  -1.366  0.00  0.00    +0.000 HD
ENDROOT
BRANCH   1   4
ATOM      4  C   UNL     1       7.889 -10.405  -0.588  0.00  0.00    +0.000 C 
ATOM      5  H   UNL     1       7.091 -10.363   0.163  0.00  0.00    +0.000 HD
ATOM      6  H   UNL     1       7.407 -10.451  -1.571  0.00  0.00    +0.000 HD
BRANCH   4   7
ATOM      7  C   UNL     1       8.730 -11.665  -0.374  0.00  0.00    +0.000 C 
ATOM      8  H   UNL     1       9.478 -11.469   0.405  0.00  0.00    +0.000 HD
ATOM      9  H   UNL     1       9.284 -11.895  -1.293  0.00  0.00    +0.000 HD
BRANCH   7  10
ATOM     10  C   UNL     1       7.901 -12.888   0.030  0.00  0.00    +0.000 C 
ATOM     11  H   UNL     1       8.579 -13.714   0.279  0.00  0.00    +0.000 HD
ATOM     12  H   UNL     1       7.340 -12.653   0.942  0.00  0.00    +0.000 HD
BRANCH  10  13
ATOM     13  C   UNL     1       6.931 -13.350  -1.059  0.00  0.00    +0.000 C 
ATOM     14  H   UNL     1       7.243 -14.332  -1.437  0.00  0.00    +0.000 HD
ATOM     15  H   UNL     1       6.972 -12.652  -1.904  0.00  0.00    +0.000 HD
BRANCH  13  16
ATOM     16  C   UNL     1       5.500 -13.434  -0.528  0.00  0.00    +0.000 C 
ATOM     17  H   UNL     1       5.042 -14.379  -0.840  0.00  0.00    +0.000 HD
ATOM     18  H   UNL     1       5.509 -13.423   0.569  0.00  0.00    +0.000 HD
BRANCH  16  19
ATOM     19  C   UNL     1       4.650 -12.276  -1.027  0.00  0.00    +0.000 C 
ATOM     20  H   UNL     1       5.050 -11.318  -0.680  0.00  0.00    +0.000 HD
ATOM     21  H   UNL     1       4.618 -12.259  -2.122  0.00  0.00    +0.000 HD
ATOM     22  H   UNL     1       3.625 -12.372  -0.659  0.00  0.00    +0.000 HD
ENDBRANCH  16  19
ENDBRANCH  13  16
ENDBRANCH  10  13
ENDBRANCH   7  10
ENDBRANCH   4   7
ENDBRANCH   1   4
BRANCH   1  23
ATOM     23  C   UNL     1      10.238  -9.490  -0.425  0.00  0.00    +0.000 C 
ATOM     24  H   UNL     1      10.673  -9.058   0.485  0.00  0.00    +0.000 HD
ATOM     25  H   UNL     1      10.351 -10.579  -0.343  0.00  0.00    +0.000 HD
BRANCH  23  26
ATOM     26  C   UNL     1      11.038  -8.999  -1.636  0.00  0.00    +0.000 C 
ATOM     27  H   UNL     1      10.401  -8.323  -2.222  0.00  0.00    +0.000 HD
ATOM     28  H   UNL     1      11.881  -8.394  -1.277  0.00  0.00    +0.000 HD
BRANCH  26  29
ATOM     29  C   UNL     1      11.576 -10.087  -2.569  0.00  0.00    +0.000 C 
ATOM     30  H   UNL     1      10.891 -10.198  -3.419  0.00  0.00    +0.000 HD
ATOM     31  H   UNL     1      11.573 -11.045  -2.034  0.00  0.00    +0.000 HD
BRANCH  29  32
ATOM     32  C   UNL     1      12.986  -9.802  -3.091  0.00  0.00    +0.000 C 
ATOM     33  H   UNL     1      13.307  -8.811  -2.746  0.00  0.00    +0.000 HD
ATOM     34  H   UNL     1      13.685 -10.534  -2.671  0.00  0.00    +0.000 HD
BRANCH  32  36
ATOM     35 CL   UNL     1      11.978  -8.605  -5.311  0.00  0.00    +0.000 Cl
ATOM     36  C   UNL     1      13.026  -9.860  -4.613  0.00  0.00    +0.000 C 
ATOM     37  H   UNL     1      12.675 -10.829  -4.981  0.00  0.00    +0.000 HD
ATOM     38  H   UNL     1      14.041  -9.693  -4.989  0.00  0.00    +0.000 HD
ENDBRANCH  32  36
ENDBRANCH  29  32
ENDBRANCH  26  29
ENDBRANCH  23  26
ENDBRANCH   1  23
TORSDOF 11
ENDMDL
MODEL 2
REMARK VINA RESULT:    -4.387      8.174      9.011
REMARK INTER + INTRA:          -8.472
REMARK INTER:                  -7.258
REMARK INTRA:                  -1.214
REMARK UNBOUND:                -1.393
REMARK  Name = 8192
REMARK  11 active torsions:
REMARK  status: ('A' for Active; 'I' for Inactive)
REMARK    1  A    between atoms: C_2  and  C_3
REMARK    2  A    between atoms: C_2  and  C_4
REMARK    3  A    between atoms: C_3  and  C_5
REMARK    4  A    between atoms: C_4  and  C_6
REMARK    5  A    between atoms: C_5  and  C_7
REMARK    6  A    between atoms: C_6  and  C_8
REMARK    7  A    between atoms: C_7  and  C_9
REMARK    8  A    between atoms: C_8  and  C_10
REMARK    9  A    between atoms: C_9  and  C_11
REMARK   10  A    between atoms: C_10  and  C_12
REMARK   11  A    between atoms: C_11  and  C_13
REMARK                            x       y       z     vdW  Elec       q    Type
REMARK                         _______ _______ _______ _____ _____    ______ ____
ROOT
ATOM      1  C   UNL     1       5.588  -3.335   1.567  0.00  0.00    +0.000 C 
ATOM      2  H   UNL     1       5.685  -3.756   2.574  0.00  0.00    +0.000 HD
ATOM      3  H   UNL     1       5.454  -2.252   1.680  0.00  0.00    +0.000 HD
ENDROOT
BRANCH   1   4
ATOM      4  C   UNL     1       4.361  -3.936   0.873  0.00  0.00    +0.000 C 
ATOM      5  H   UNL     1       4.680  -4.511  -0.005  0.00  0.00    +0.000 HD
ATOM      6  H   UNL     1       3.857  -4.634   1.552  0.00  0.00    +0.000 HD
BRANCH   4   7
ATOM      7  C   UNL     1       3.378  -2.845   0.443  0.00  0.00    +0.000 C 
ATOM      8  H   UNL     1       3.702  -1.885   0.865  0.00  0.00    +0.000 HD
ATOM      9  H   UNL     1       2.389  -3.059   0.866  0.00  0.00    +0.000 HD
BRANCH   7  10
ATOM     10  C   UNL     1       3.253  -2.704  -1.076  0.00  0.00    +0.000 C 
ATOM     11  H   UNL     1       2.934  -3.665  -1.500  0.00  0.00    +0.000 HD
ATOM     12  H   UNL     1       2.460  -1.981  -1.304  0.00  0.00    +0.000 HD
BRANCH  10  13
ATOM     13  C   UNL     1       4.552  -2.266  -1.755  0.00  0.00    +0.000 C 
ATOM     14  H   UNL     1       5.295  -2.001  -0.993  0.00  0.00    +0.000 HD
ATOM     15  H   UNL     1       4.365  -1.364  -2.350  0.00  0.00    +0.000 HD
BRANCH  13  16
ATOM     16  C   UNL     1       5.108  -3.370  -2.654  0.00  0.00    +0.000 C 
ATOM     17  H   UNL     1       5.259  -4.285  -2.070  0.00  0.00    +0.000 HD
ATOM     18  H   UNL     1       4.386  -3.606  -3.445  0.00  0.00    +0.000 HD
BRANCH  16  19
ATOM     19  C   UNL     1       6.426  -2.961  -3.293  0.00  0.00    +0.000 C 
ATOM     20  H   UNL     1       7.256  -3.551  -2.891  0.00  0.00    +0.000 HD
ATOM     21  H   UNL     1       6.395  -3.103  -4.378  0.00  0.00    +0.000 HD
ATOM     22  H   UNL     1       6.631  -1.905  -3.094  0.00  0.00    +0.000 HD
ENDBRANCH  16  19
ENDBRANCH  13  16
ENDBRANCH  10  13
ENDBRANCH   7  10
ENDBRANCH   4   7
ENDBRANCH   1   4
BRANCH   1  23
ATOM     23  C   UNL     1       6.865  -3.615   0.773  0.00  0.00    +0.000 C 
ATOM     24  H   UNL     1       7.557  -4.202   1.389  0.00  0.00    +0.000 HD
ATOM     25  H   UNL     1       6.619  -4.230  -0.102  0.00  0.00    +0.000 HD
BRANCH  23  26
ATOM     26  C   UNL     1       7.580  -2.345   0.300  0.00  0.00    +0.000 C 
ATOM     27  H   UNL     1       6.892  -1.777  -0.342  0.00  0.00    +0.000 HD
ATOM     28  H   UNL     1       7.781  -1.711   1.173  0.00  0.00    +0.000 HD
BRANCH  26  29
ATOM     29  C   UNL     1       8.889  -2.560  -0.464  0.00  0.00    +0.000 C 
ATOM     30  H   UNL     1       8.716  -3.282  -1.272  0.00  0.00    +0.000 HD
ATOM     31  H   UNL     1       9.623  -3.014   0.212  0.00  0.00    +0.000 HD
BRANCH  29  32
ATOM     32  C   UNL     1       9.470  -1.273  -1.054  0.00  0.00    +0.000 C 
ATOM     33  H   UNL     1       8.712  -0.481  -1.016  0.00  0.00    +0.000 HD
ATOM     34  H   UNL     1      10.316  -0.941  -0.441  0.00  0.00    +0.000 HD
BRANCH  32  36
ATOM     35 CL   UNL     1      10.201  -3.217  -2.804  0.00  0.00    +0.000 Cl
ATOM     36  C   UNL     1       9.925  -1.488  -2.493  0.00  0.00    +0.000 C 
ATOM     37  H   UNL     1      10.861  -0.960  -2.695  0.00  0.00    +0.000 HD
ATOM     38  H   UNL     1       9.169  -1.139  -3.203  0.00  0.00    +0.000 HD
ENDBRANCH  32  36
ENDBRANCH  29  32
ENDBRANCH  26  29
ENDBRANCH  23  26
ENDBRANCH   1  23
TORSDOF 11
ENDMDL
MODEL 3
REMARK VINA RESULT:    -4.238     19.060     20.342
REMARK INTER + INTRA:          -8.233
REMARK INTER:                  -6.839
REMARK INTRA:                  -1.394
REMARK UNBOUND:                -1.393
REMARK  Name = 8192
REMARK  11 active torsions:
REMARK  status: ('A' for Active; 'I' for Inactive)
REMARK    1  A    between atoms: C_2  and  C_3
REMARK    2  A    between atoms: C_2  and  C_4
REMARK    3  A    between atoms: C_3  and  C_5
REMARK    4  A    between atoms: C_4  and  C_6
REMARK    5  A    between atoms: C_5  and  C_7
REMARK    6  A    between atoms: C_6  and  C_8
REMARK    7  A    between atoms: C_7  and  C_9
REMARK    8  A    between atoms: C_8  and  C_10
REMARK    9  A    between atoms: C_9  and  C_11
REMARK   10  A    between atoms: C_10  and  C_12
REMARK   11  A    between atoms: C_11  and  C_13
REMARK                            x       y       z     vdW  Elec       q    Type
REMARK                         _______ _______ _______ _____ _____    ______ ____
ROOT
ATOM      1  C   UNL     1       1.141  -4.404  15.251  0.00  0.00    +0.000 C 
ATOM      2  H   UNL     1       0.693  -3.423  15.057  0.00  0.00    +0.000 HD
ATOM      3  H   UNL     1       1.223  -4.920  14.286  0.00  0.00    +0.000 HD
ENDROOT
BRANCH   1   4
ATOM      4  C   UNL     1       0.237  -5.207  16.191  0.00  0.00    +0.000 C 
ATOM      5  H   UNL     1       0.754  -5.380  17.142  0.00  0.00    +0.000 HD
ATOM      6  H   UNL     1      -0.669  -4.631  16.415  0.00  0.00    +0.000 HD
BRANCH   4   7
ATOM      7  C   UNL     1      -0.156  -6.549  15.569  0.00  0.00    +0.000 C 
ATOM      8  H   UNL     1       0.652  -6.888  14.908  0.00  0.00    +0.000 HD
ATOM      9  H   UNL     1      -1.043  -6.412  14.938  0.00  0.00    +0.000 HD
BRANCH   7  10
ATOM     10  C   UNL     1      -0.442  -7.639  16.605  0.00  0.00    +0.000 C 
ATOM     11  H   UNL     1      -1.479  -7.978  16.492  0.00  0.00    +0.000 HD
ATOM     12  H   UNL     1       0.198  -8.505  16.398  0.00  0.00    +0.000 HD
BRANCH  10  13
ATOM     13  C   UNL     1      -0.222  -7.179  18.048  0.00  0.00    +0.000 C 
ATOM     14  H   UNL     1      -1.168  -6.810  18.464  0.00  0.00    +0.000 HD
ATOM     15  H   UNL     1       0.484  -6.340  18.059  0.00  0.00    +0.000 HD
BRANCH  13  16
ATOM     16  C   UNL     1       0.314  -8.316  18.917  0.00  0.00    +0.000 C 
ATOM     17  H   UNL     1      -0.194  -9.253  18.659  0.00  0.00    +0.000 HD
ATOM     18  H   UNL     1       1.383  -8.463  18.722  0.00  0.00    +0.000 HD
BRANCH  16  19
ATOM     19  C   UNL     1       0.115  -8.030  20.397  0.00  0.00    +0.000 C 
ATOM     20  H   UNL     1       0.942  -7.434  20.796  0.00  0.00    +0.000 HD
ATOM     21  H   UNL     1      -0.818  -7.481  20.567  0.00  0.00    +0.000 HD
ATOM     22  H   UNL     1       0.067  -8.966  20.961  0.00  0.00    +0.000 HD
ENDBRANCH  16  19
ENDBRANCH  13  16
ENDBRANCH  10  13
ENDBRANCH   7  10
ENDBRANCH   4   7
ENDBRANCH   1   4
BRANCH   1  23
ATOM     23  C   UNL     1       2.535  -4.216  15.852  0.00  0.00    +0.000 C 
ATOM     24  H   UNL     1       3.291  -4.332  15.065  0.00  0.00    +0.000 HD
ATOM     25  H   UNL     1       2.630  -3.192  16.233  0.00  0.00    +0.000 HD
BRANCH  23  26
ATOM     26  C   UNL     1       2.849  -5.198  16.985  0.00  0.00    +0.000 C 
ATOM     27  H   UNL     1       3.141  -4.622  17.873  0.00  0.00    +0.000 HD
ATOM     28  H   UNL     1       1.927  -5.729  17.254  0.00  0.00    +0.000 HD
BRANCH  26  29
ATOM     29  C   UNL     1       3.943  -6.228  16.694  0.00  0.00    +0.000 C 
ATOM     30  H   UNL     1       4.373  -6.569  17.645  0.00  0.00    +0.000 HD
ATOM     31  H   UNL     1       4.752  -5.739  16.139  0.00  0.00    +0.000 HD
BRANCH  29  32
ATOM     32  C   UNL     1       3.445  -7.440  15.903  0.00  0.00    +0.000 C 
ATOM     33  H   UNL     1       3.764  -8.360  16.409  0.00  0.00    +0.000 HD
ATOM     34  H   UNL     1       2.349  -7.441  15.890  0.00  0.00    +0.000 HD
BRANCH  32  36
ATOM     35 CL   UNL     1       2.641  -7.375  13.310  0.00  0.00    +0.000 Cl
ATOM     36  C   UNL     1       3.982  -7.419  14.477  0.00  0.00    +0.000 C 
ATOM     37  H   UNL     1       4.577  -8.313  14.265  0.00  0.00    +0.000 HD
ATOM     38  H   UNL     1       4.605  -6.537  14.302  0.00  0.00    +0.000 HD
ENDBRANCH  32  36
ENDBRANCH  29  32
ENDBRANCH  26  29
ENDBRANCH  23  26
ENDBRANCH   1  23
TORSDOF 11
ENDMDL
MODEL 4
REMARK VINA RESULT:    -4.188     19.701     21.607
REMARK INTER + INTRA:          -8.151
REMARK INTER:                  -7.313
REMARK INTRA:                  -0.838
REMARK UNBOUND:                -1.393
REMARK  Name = 8192
REMARK  11 active torsions:
REMARK  status: ('A' for Active; 'I' for Inactive)
REMARK    1  A    between atoms: C_2  and  C_3
REMARK    2  A    between atoms: C_2  and  C_4
REMARK    3  A    between atoms: C_3  and  C_5
REMARK    4  A    between atoms: C_4  and  C_6
REMARK    5  A    between atoms: C_5  and  C_7
REMARK    6  A    between atoms: C_6  and  C_8
REMARK    7  A    between atoms: C_7  and  C_9
REMARK    8  A    between atoms: C_8  and  C_10
REMARK    9  A    between atoms: C_9  and  C_11
REMARK   10  A    between atoms: C_10  and  C_12
REMARK   11  A    between atoms: C_11  and  C_13
REMARK                            x       y       z     vdW  Elec       q    Type
REMARK                         _______ _______ _______ _____ _____    ______ ____
ROOT
ATOM      1  C   UNL     1      -0.718  -6.471  16.390  0.00  0.00    +0.000 C 
ATOM      2  H   UNL     1      -0.680  -7.091  15.488  0.00  0.00    +0.000 HD
ATOM      3  H   UNL     1      -1.761  -6.162  16.529  0.00  0.00    +0.000 HD
ENDROOT
BRANCH   1   4
ATOM      4  C   UNL     1       0.167  -5.235  16.204  0.00  0.00    +0.000 C 
ATOM      5  H   UNL     1      -0.451  -4.330  16.246  0.00  0.00    +0.000 HD
ATOM      6  H   UNL     1       0.891  -5.170  17.024  0.00  0.00    +0.000 HD
BRANCH   4   7
ATOM      7  C   UNL     1       0.914  -5.284  14.869  0.00  0.00    +0.000 C 
ATOM      8  H   UNL     1       0.614  -4.423  14.259  0.00  0.00    +0.000 HD
ATOM      9  H   UNL     1       0.613  -6.183  14.317  0.00  0.00    +0.000 HD
BRANCH   7  10
ATOM     10  C   UNL     1       2.437  -5.279  15.024  0.00  0.00    +0.000 C 
ATOM     11  H   UNL     1       2.780  -6.301  15.229  0.00  0.00    +0.000 HD
ATOM     12  H   UNL     1       2.892  -4.977  14.073  0.00  0.00    +0.000 HD
BRANCH  10  13
ATOM     13  C   UNL     1       2.931  -4.354  16.140  0.00  0.00    +0.000 C 
ATOM     14  H   UNL     1       3.973  -4.595  16.382  0.00  0.00    +0.000 HD
ATOM     15  H   UNL     1       2.340  -4.530  17.047  0.00  0.00    +0.000 HD
BRANCH  13  16
ATOM     16  C   UNL     1       2.823  -2.885  15.731  0.00  0.00    +0.000 C 
ATOM     17  H   UNL     1       1.801  -2.666  15.398  0.00  0.00    +0.000 HD
ATOM     18  H   UNL     1       3.028  -2.242  16.594  0.00  0.00    +0.000 HD
BRANCH  16  19
ATOM     19  C   UNL     1       3.797  -2.543  14.615  0.00  0.00    +0.000 C 
ATOM     20  H   UNL     1       3.729  -1.485  14.345  0.00  0.00    +0.000 HD
ATOM     21  H   UNL     1       4.829  -2.755  14.918  0.00  0.00    +0.000 HD
ATOM     22  H   UNL     1       3.577  -3.138  13.723  0.00  0.00    +0.000 HD
ENDBRANCH  16  19
ENDBRANCH  13  16
ENDBRANCH  10  13
ENDBRANCH   7  10
ENDBRANCH   4   7
ENDBRANCH   1   4
BRANCH   1  23
ATOM     23  C   UNL     1      -0.265  -7.298  17.595  0.00  0.00    +0.000 C 
ATOM     24  H   UNL     1      -0.168  -6.644  18.471  0.00  0.00    +0.000 HD
ATOM     25  H   UNL     1      -1.038  -8.039  17.837  0.00  0.00    +0.000 HD
BRANCH  23  26
ATOM     26  C   UNL     1       1.065  -8.025  17.372  0.00  0.00    +0.000 C 
ATOM     27  H   UNL     1       1.498  -7.675  16.426  0.00  0.00    +0.000 HD
ATOM     28  H   UNL     1       1.766  -7.723  18.161  0.00  0.00    +0.000 HD
BRANCH  26  29
ATOM     29  C   UNL     1       0.994  -9.554  17.337  0.00  0.00    +0.000 C 
ATOM     30  H   UNL     1       1.725  -9.961  18.048  0.00  0.00    +0.000 HD
ATOM     31  H   UNL     1       1.296  -9.900  16.341  0.00  0.00    +0.000 HD
BRANCH  29  32
ATOM     32  C   UNL     1      -0.394 -10.108  17.669  0.00  0.00    +0.000 C 
ATOM     33  H   UNL     1      -1.100  -9.277  17.777  0.00  0.00    +0.000 HD
ATOM     34  H   UNL     1      -0.747 -10.728  16.835  0.00  0.00    +0.000 HD
BRANCH  32  36
ATOM     35 CL   UNL     1       0.084  -9.911  20.335  0.00  0.00    +0.000 Cl
ATOM     36  C   UNL     1      -0.361 -10.933  18.950  0.00  0.00    +0.000 C 
ATOM     37  H   UNL     1       0.376 -11.739  18.882  0.00  0.00    +0.000 HD
ATOM     38  H   UNL     1      -1.340 -11.374  19.162  0.00  0.00    +0.000 HD
ENDBRANCH  32  36
ENDBRANCH  29  32
ENDBRANCH  26  29
ENDBRANCH  23  26
ENDBRANCH   1  23
TORSDOF 11
ENDMDL
MODEL 5
REMARK VINA RESULT:    -4.133      2.136      3.198
REMARK INTER + INTRA:          -8.062
REMARK INTER:                  -7.595
REMARK INTRA:                  -0.467
REMARK UNBOUND:                -1.393
REMARK  Name = 8192
REMARK  11 active torsions:
REMARK  status: ('A' for Active; 'I' for Inactive)
REMARK    1  A    between atoms: C_2  and  C_3
REMARK    2  A    between atoms: C_2  and  C_4
REMARK    3  A    between atoms: C_3  and  C_5
REMARK    4  A    between atoms: C_4  and  C_6
REMARK    5  A    between atoms: C_5  and  C_7
REMARK    6  A    between atoms: C_6  and  C_8
REMARK    7  A    between atoms: C_7  and  C_9
REMARK    8  A    between atoms: C_8  and  C_10
REMARK    9  A    between atoms: C_9  and  C_11
REMARK   10  A    between atoms: C_10  and  C_12
REMARK   11  A    between atoms: C_11  and  C_13
REMARK                            x       y       z     vdW  Elec       q    Type
REMARK                         _______ _______ _______ _____ _____    ______ ____
ROOT
ATOM      1  C   UNL     1       8.085 -12.255  -0.473  0.00  0.00    +0.000 C 
ATOM      2  H   UNL     1       8.934 -12.414  -1.147  0.00  0.00    +0.000 HD
ATOM      3  H   UNL     1       8.421 -12.513   0.539  0.00  0.00    +0.000 HD
ENDROOT
BRANCH   1   4
ATOM      4  C   UNL     1       6.925 -13.169  -0.880  0.00  0.00    +0.000 C 
ATOM      5  H   UNL     1       6.219 -12.611  -1.507  0.00  0.00    +0.000 HD
ATOM      6  H   UNL     1       7.305 -14.002  -1.483  0.00  0.00    +0.000 HD
BRANCH   4   7
ATOM      7  C   UNL     1       6.196 -13.720   0.348  0.00  0.00    +0.000 C 
ATOM      8  H   UNL     1       6.842 -13.606   1.228  0.00  0.00    +0.000 HD
ATOM      9  H   UNL     1       6.026 -14.796   0.218  0.00  0.00    +0.000 HD
BRANCH   7  10
ATOM     10  C   UNL     1       4.857 -13.030   0.620  0.00  0.00    +0.000 C 
ATOM     11  H   UNL     1       4.849 -12.053   0.121  0.00  0.00    +0.000 HD
ATOM     12  H   UNL     1       4.052 -13.622   0.168  0.00  0.00    +0.000 HD
BRANCH  10  13
ATOM     13  C   UNL     1       4.567 -12.832   2.110  0.00  0.00    +0.000 C 
ATOM     14  H   UNL     1       5.434 -12.367   2.594  0.00  0.00    +0.000 HD
ATOM     15  H   UNL     1       4.418 -13.809   2.584  0.00  0.00    +0.000 HD
BRANCH  13  16
ATOM     16  C   UNL     1       3.329 -11.961   2.322  0.00  0.00    +0.000 C 
ATOM     17  H   UNL     1       3.558 -11.155   3.030  0.00  0.00    +0.000 HD
ATOM     18  H   UNL     1       3.039 -11.489   1.376  0.00  0.00    +0.000 HD
BRANCH  16  19
ATOM     19  C   UNL     1       2.158 -12.774   2.850  0.00  0.00    +0.000 C 
ATOM     20  H   UNL     1       2.251 -12.942   3.928  0.00  0.00    +0.000 HD
ATOM     21  H   UNL     1       1.209 -12.260   2.663  0.00  0.00    +0.000 HD
ATOM     22  H   UNL     1       2.119 -13.749   2.356  0.00  0.00    +0.000 HD
ENDBRANCH  16  19
ENDBRANCH  13  16
ENDBRANCH  10  13
ENDBRANCH   7  10
ENDBRANCH   4   7
ENDBRANCH   1   4
BRANCH   1  23
ATOM     23  C   UNL     1       7.670 -10.783  -0.514  0.00  0.00    +0.000 C 
ATOM     24  H   UNL     1       7.105 -10.588  -1.435  0.00  0.00    +0.000 HD
ATOM     25  H   UNL     1       6.992 -10.575   0.323  0.00  0.00    +0.000 HD
BRANCH  23  26
ATOM     26  C   UNL     1       8.853  -9.812  -0.447  0.00  0.00    +0.000 C 
ATOM     27  H   UNL     1       8.543  -8.855  -0.887  0.00  0.00    +0.000 HD
ATOM     28  H   UNL     1       9.078  -9.607   0.608  0.00  0.00    +0.000 HD
BRANCH  26  29
ATOM     29  C   UNL     1      10.137 -10.273  -1.142  0.00  0.00    +0.000 C 
ATOM     30  H   UNL     1       9.870 -10.882  -2.015  0.00  0.00    +0.000 HD
ATOM     31  H   UNL     1      10.695 -10.926  -0.460  0.00  0.00    +0.000 HD
BRANCH  29  32
ATOM     32  C   UNL     1      11.036  -9.118  -1.590  0.00  0.00    +0.000 C 
ATOM     33  H   UNL     1      10.414  -8.293  -1.956  0.00  0.00    +0.000 HD
ATOM     34  H   UNL     1      11.601  -8.741  -0.728  0.00  0.00    +0.000 HD
BRANCH  32  36
ATOM     35 CL   UNL     1      11.470 -11.116  -3.377  0.00  0.00    +0.000 Cl
ATOM     36  C   UNL     1      11.999  -9.568  -2.683  0.00  0.00    +0.000 C 
ATOM     37  H   UNL     1      13.009  -9.709  -2.287  0.00  0.00    +0.000 HD
ATOM     38  H   UNL     1      12.043  -8.836  -3.496  0.00  0.00    +0.000 HD
ENDBRANCH  32  36
ENDBRANCH  29  32
ENDBRANCH  26  29
ENDBRANCH  23  26
ENDBRANCH   1  23
TORSDOF 11
ENDMDL
MODEL 6
REMARK VINA RESULT:    -4.129     19.754     21.569
REMARK INTER + INTRA:          -8.056
REMARK INTER:                  -7.498
REMARK INTRA:                  -0.558
REMARK UNBOUND:                -1.393
REMARK  Name = 8192
REMARK  11 active torsions:
REMARK  status: ('A' for Active; 'I' for Inactive)
REMARK    1  A    between atoms: C_2  and  C_3
REMARK    2  A    between atoms: C_2  and  C_4
REMARK    3  A    between atoms: C_3  and  C_5
REMARK    4  A    between atoms: C_4  and  C_6
REMARK    5  A    between atoms: C_5  and  C_7
REMARK    6  A    between atoms: C_6  and  C_8
REMARK    7  A    between atoms: C_7  and  C_9
REMARK    8  A    between atoms: C_8  and  C_10
REMARK    9  A    between atoms: C_9  and  C_11
REMARK   10  A    between atoms: C_10  and  C_12
REMARK   11  A    between atoms: C_11  and  C_13
REMARK                            x       y       z     vdW  Elec       q    Type
REMARK                         _______ _______ _______ _____ _____    ______ ____
ROOT
ATOM      1  C   UNL     1       1.370  -7.130  17.420  0.00  0.00    +0.000 C 
ATOM      2  H   UNL     1       1.417  -6.069  17.692  0.00  0.00    +0.000 HD
ATOM      3  H   UNL     1       2.332  -7.579  17.699  0.00  0.00    +0.000 HD
ENDROOT
BRANCH   1   4
ATOM      4  C   UNL     1       1.156  -7.266  15.909  0.00  0.00    +0.000 C 
ATOM      5  H   UNL     1       2.124  -7.236  15.396  0.00  0.00    +0.000 HD
ATOM      6  H   UNL     1       0.701  -8.238  15.687  0.00  0.00    +0.000 HD
BRANCH   4   7
ATOM      7  C   UNL     1       0.256  -6.149  15.375  0.00  0.00    +0.000 C 
ATOM      8  H   UNL     1      -0.791  -6.402  15.583  0.00  0.00    +0.000 HD
ATOM      9  H   UNL     1       0.357  -6.091  14.284  0.00  0.00    +0.000 HD
BRANCH   7  10
ATOM     10  C   UNL     1       0.566  -4.777  15.980  0.00  0.00    +0.000 C 
ATOM     11  H   UNL     1      -0.377  -4.270  16.220  0.00  0.00    +0.000 HD
ATOM     12  H   UNL     1       1.100  -4.917  16.927  0.00  0.00    +0.000 HD
BRANCH  10  13
ATOM     13  C   UNL     1       1.394  -3.879  15.058  0.00  0.00    +0.000 C 
ATOM     14  H   UNL     1       0.799  -3.005  14.765  0.00  0.00    +0.000 HD
ATOM     15  H   UNL     1       1.637  -4.426  14.139  0.00  0.00    +0.000 HD
BRANCH  13  16
ATOM     16  C   UNL     1       2.682  -3.421  15.741  0.00  0.00    +0.000 C 
ATOM     17  H   UNL     1       2.441  -2.822  16.627  0.00  0.00    +0.000 HD
ATOM     18  H   UNL     1       3.253  -4.292  16.083  0.00  0.00    +0.000 HD
BRANCH  16  19
ATOM     19  C   UNL     1       3.550  -2.598  14.802  0.00  0.00    +0.000 C 
ATOM     20  H   UNL     1       3.874  -3.195  13.943  0.00  0.00    +0.000 HD
ATOM     21  H   UNL     1       3.004  -1.726  14.428  0.00  0.00    +0.000 HD
ATOM     22  H   UNL     1       4.442  -2.242  15.325  0.00  0.00    +0.000 HD
ENDBRANCH  16  19
ENDBRANCH  13  16
ENDBRANCH  10  13
ENDBRANCH   7  10
ENDBRANCH   4   7
ENDBRANCH   1   4
BRANCH   1  23
ATOM     23  C   UNL     1       0.243  -7.806  18.202  0.00  0.00    +0.000 C 
ATOM     24  H   UNL     1       0.611  -8.102  19.192  0.00  0.00    +0.000 HD
ATOM     25  H   UNL     1      -0.566  -7.084  18.368  0.00  0.00    +0.000 HD
BRANCH  23  26
ATOM     26  C   UNL     1      -0.332  -9.041  17.500  0.00  0.00    +0.000 C 
ATOM     27  H   UNL     1      -1.381  -8.838  17.245  0.00  0.00    +0.000 HD
ATOM     28  H   UNL     1       0.195  -9.178  16.546  0.00  0.00    +0.000 HD
BRANCH  26  29
ATOM     29  C   UNL     1      -0.269 -10.350  18.290  0.00  0.00    +0.000 C 
ATOM     30  H   UNL     1      -1.094 -10.369  19.014  0.00  0.00    +0.000 HD
ATOM     31  H   UNL     1       0.661 -10.369  18.870  0.00  0.00    +0.000 HD
BRANCH  29  32
ATOM     32  C   UNL     1      -0.344 -11.599  17.409  0.00  0.00    +0.000 C 
ATOM     33  H   UNL     1      -0.254 -11.307  16.356  0.00  0.00    +0.000 HD
ATOM     34  H   UNL     1       0.503 -12.257  17.637  0.00  0.00    +0.000 HD
BRANCH  32  36
ATOM     35 CL   UNL     1      -2.258 -13.010  16.095  0.00  0.00    +0.000 Cl
ATOM     36  C   UNL     1      -1.654 -12.346  17.630  0.00  0.00    +0.000 C 
ATOM     37  H   UNL     1      -2.425 -11.681  18.031  0.00  0.00    +0.000 HD
ATOM     38  H   UNL     1      -1.521 -13.181  18.325  0.00  0.00    +0.000 HD
ENDBRANCH  32  36
ENDBRANCH  29  32
ENDBRANCH  26  29
ENDBRANCH  23  26
ENDBRANCH   1  23
TORSDOF 11
ENDMDL
MODEL 7
REMARK VINA RESULT:    -4.126      5.265      7.473
REMARK INTER + INTRA:          -8.052
REMARK INTER:                  -7.033
REMARK INTRA:                  -1.020
REMARK UNBOUND:                -1.393
REMARK  Name = 8192
REMARK  11 active torsions:
REMARK  status: ('A' for Active; 'I' for Inactive)
REMARK    1  A    between atoms: C_2  and  C_3
REMARK    2  A    between atoms: C_2  and  C_4
REMARK    3  A    between atoms: C_3  and  C_5
REMARK    4  A    between atoms: C_4  and  C_6
REMARK    5  A    between atoms: C_5  and  C_7
REMARK    6  A    between atoms: C_6  and  C_8
REMARK    7  A    between atoms: C_7  and  C_9
REMARK    8  A    between atoms: C_8  and  C_10
REMARK    9  A    between atoms: C_9  and  C_11
REMARK   10  A    between atoms: C_10  and  C_12
REMARK   11  A    between atoms: C_11  and  C_13
REMARK                            x       y       z     vdW  Elec       q    Type
REMARK                         _______ _______ _______ _____ _____    ______ ____
ROOT
ATOM      1  C   UNL     1       3.552 -16.418   1.482  0.00  0.00    +0.000 C 
ATOM      2  H   UNL     1       2.791 -15.837   0.949  0.00  0.00    +0.000 HD
ATOM      3  H   UNL     1       3.287 -17.477   1.375  0.00  0.00    +0.000 HD
ENDROOT
BRANCH   1   4
ATOM      4  C   UNL     1       3.550 -16.033   2.965  0.00  0.00    +0.000 C 
ATOM      5  H   UNL     1       3.440 -16.935   3.579  0.00  0.00    +0.000 HD
ATOM      6  H   UNL     1       4.511 -15.576   3.230  0.00  0.00    +0.000 HD
BRANCH   4   7
ATOM      7  C   UNL     1       2.417 -15.054   3.282  0.00  0.00    +0.000 C 
ATOM      8  H   UNL     1       1.900 -15.388   4.190  0.00  0.00    +0.000 HD
ATOM      9  H   UNL     1       1.679 -15.077   2.471  0.00  0.00    +0.000 HD
BRANCH   7  10
ATOM     10  C   UNL     1       2.897 -13.614   3.482  0.00  0.00    +0.000 C 
ATOM     11  H   UNL     1       2.818 -13.355   4.545  0.00  0.00    +0.000 HD
ATOM     12  H   UNL     1       3.960 -13.552   3.219  0.00  0.00    +0.000 HD
BRANCH  10  13
ATOM     13  C   UNL     1       2.109 -12.592   2.660  0.00  0.00    +0.000 C 
ATOM     14  H   UNL     1       1.403 -12.061   3.311  0.00  0.00    +0.000 HD
ATOM     15  H   UNL     1       1.517 -13.115   1.899  0.00  0.00    +0.000 HD
BRANCH  13  16
ATOM     16  C   UNL     1       3.043 -11.587   1.984  0.00  0.00    +0.000 C 
ATOM     17  H   UNL     1       3.390 -10.850   2.718  0.00  0.00    +0.000 HD
ATOM     18  H   UNL     1       3.929 -12.103   1.597  0.00  0.00    +0.000 HD
BRANCH  16  19
ATOM     19  C   UNL     1       2.351 -10.864   0.839  0.00  0.00    +0.000 C 
ATOM     20  H   UNL     1       2.260 -11.514  -0.037  0.00  0.00    +0.000 HD
ATOM     21  H   UNL     1       1.347 -10.539   1.131  0.00  0.00    +0.000 HD
ATOM     22  H   UNL     1       2.923  -9.979   0.548  0.00  0.00    +0.000 HD
ENDBRANCH  16  19
ENDBRANCH  13  16
ENDBRANCH  10  13
ENDBRANCH   7  10
ENDBRANCH   4   7
ENDBRANCH   1   4
BRANCH   1  23
ATOM     23  C   UNL     1       4.922 -16.166   0.847  0.00  0.00    +0.000 C 
ATOM     24  H   UNL     1       5.650 -16.879   1.255  0.00  0.00    +0.000 HD
ATOM     25  H   UNL     1       4.861 -16.359  -0.231  0.00  0.00    +0.000 HD
BRANCH  23  26
ATOM     26  C   UNL     1       5.445 -14.744   1.068  0.00  0.00    +0.000 C 
ATOM     27  H   UNL     1       4.634 -14.136   1.490  0.00  0.00    +0.000 HD
ATOM     28  H   UNL     1       6.234 -14.776   1.831  0.00  0.00    +0.000 HD
BRANCH  26  29
ATOM     29  C   UNL     1       5.990 -14.031  -0.172  0.00  0.00    +0.000 C 
ATOM     30  H   UNL     1       6.388 -14.781  -0.867  0.00  0.00    +0.000 HD
ATOM     31  H   UNL     1       6.834 -13.397   0.125  0.00  0.00    +0.000 HD
BRANCH  29  32
ATOM     32  C   UNL     1       4.944 -13.179  -0.896  0.00  0.00    +0.000 C 
ATOM     33  H   UNL     1       4.831 -13.539  -1.925  0.00  0.00    +0.000 HD
ATOM     34  H   UNL     1       3.972 -13.299  -0.401  0.00  0.00    +0.000 HD
BRANCH  32  36
ATOM     35 CL   UNL     1       7.043 -11.527  -0.401  0.00  0.00    +0.000 Cl
ATOM     36  C   UNL     1       5.346 -11.709  -0.900  0.00  0.00    +0.000 C 
ATOM     37  H   UNL     1       4.731 -11.129  -0.205  0.00  0.00    +0.000 HD
ATOM     38  H   UNL     1       5.244 -11.274  -1.899  0.00  0.00    +0.000 HD
ENDBRANCH  32  36
ENDBRANCH  29  32
ENDBRANCH  26  29
ENDBRANCH  23  26
ENDBRANCH   1  23
TORSDOF 11
ENDMDL
MODEL 8
REMARK VINA RESULT:    -4.116     18.060     21.777
REMARK INTER + INTRA:          -8.035
REMARK INTER:                  -7.518
REMARK INTRA:                  -0.517
REMARK UNBOUND:                -1.393
REMARK  Name = 8192
REMARK  11 active torsions:
REMARK  status: ('A' for Active; 'I' for Inactive)
REMARK    1  A    between atoms: C_2  and  C_3
REMARK    2  A    between atoms: C_2  and  C_4
REMARK    3  A    between atoms: C_3  and  C_5
REMARK    4  A    between atoms: C_4  and  C_6
REMARK    5  A    between atoms: C_5  and  C_7
REMARK    6  A    between atoms: C_6  and  C_8
REMARK    7  A    between atoms: C_7  and  C_9
REMARK    8  A    between atoms: C_8  and  C_10
REMARK    9  A    between atoms: C_9  and  C_11
REMARK   10  A    between atoms: C_10  and  C_12
REMARK   11  A    between atoms: C_11  and  C_13
REMARK                            x       y       z     vdW  Elec       q    Type
REMARK                         _______ _______ _______ _____ _____    ______ ____
ROOT
ATOM      1  C   UNL     1     -10.245 -15.620   6.468  0.00  0.00    +0.000 C 
ATOM      2  H   UNL     1     -11.222 -15.154   6.303  0.00  0.00    +0.000 HD
ATOM      3  H   UNL     1     -10.163 -16.460   5.767  0.00  0.00    +0.000 HD
ENDROOT
BRANCH   1   4
ATOM      4  C   UNL     1     -10.158 -16.138   7.907  0.00  0.00    +0.000 C 
ATOM      5  H   UNL     1      -9.690 -17.130   7.914  0.00  0.00    +0.000 HD
ATOM      6  H   UNL     1      -9.518 -15.475   8.501  0.00  0.00    +0.000 HD
BRANCH   4   7
ATOM      7  C   UNL     1     -11.543 -16.220   8.551  0.00  0.00    +0.000 C 
ATOM      8  H   UNL     1     -11.444 -16.632   9.564  0.00  0.00    +0.000 HD
ATOM      9  H   UNL     1     -12.168 -16.921   7.984  0.00  0.00    +0.000 HD
BRANCH   7  10
ATOM     10  C   UNL     1     -12.256 -14.868   8.633  0.00  0.00    +0.000 C 
ATOM     11  H   UNL     1     -11.715 -14.219   9.333  0.00  0.00    +0.000 HD
ATOM     12  H   UNL     1     -12.211 -14.380   7.651  0.00  0.00    +0.000 HD
BRANCH  10  13
ATOM     13  C   UNL     1     -13.716 -14.976   9.079  0.00  0.00    +0.000 C 
ATOM     14  H   UNL     1     -13.981 -16.031   9.218  0.00  0.00    +0.000 HD
ATOM     15  H   UNL     1     -14.368 -14.580   8.291  0.00  0.00    +0.000 HD
BRANCH  13  16
ATOM     16  C   UNL     1     -13.956 -14.208  10.379  0.00  0.00    +0.000 C 
ATOM     17  H   UNL     1     -14.455 -14.858  11.108  0.00  0.00    +0.000 HD
ATOM     18  H   UNL     1     -12.997 -13.907  10.817  0.00  0.00    +0.000 HD
BRANCH  16  19
ATOM     19  C   UNL     1     -14.807 -12.969  10.148  0.00  0.00    +0.000 C 
ATOM     20  H   UNL     1     -14.892 -12.746   9.079  0.00  0.00    +0.000 HD
ATOM     21  H   UNL     1     -15.815 -13.106  10.552  0.00  0.00    +0.000 HD
ATOM     22  H   UNL     1     -14.357 -12.103  10.641  0.00  0.00    +0.000 HD
ENDBRANCH  16  19
ENDBRANCH  13  16
ENDBRANCH  10  13
ENDBRANCH   7  10
ENDBRANCH   4   7
ENDBRANCH   1   4
BRANCH   1  23
ATOM     23  C   UNL     1      -9.140 -14.602   6.180  0.00  0.00    +0.000 C 
ATOM     24  H   UNL     1      -8.726 -14.785   5.180  0.00  0.00    +0.000 HD
ATOM     25  H   UNL     1      -9.572 -13.594   6.163  0.00  0.00    +0.000 HD
BRANCH  23  26
ATOM     26  C   UNL     1      -7.998 -14.634   7.201  0.00  0.00    +0.000 C 
ATOM     27  H   UNL     1      -8.425 -14.501   8.204  0.00  0.00    +0.000 HD
ATOM     28  H   UNL     1      -7.545 -15.634   7.189  0.00  0.00    +0.000 HD
BRANCH  26  29
ATOM     29  C   UNL     1      -6.894 -13.592   7.002  0.00  0.00    +0.000 C 
ATOM     30  H   UNL     1      -5.935 -14.110   6.875  0.00  0.00    +0.000 HD
ATOM     31  H   UNL     1      -6.808 -12.988   7.913  0.00  0.00    +0.000 HD
BRANCH  29  32
ATOM     32  C   UNL     1      -7.132 -12.671   5.803  0.00  0.00    +0.000 C 
ATOM     33  H   UNL     1      -8.159 -12.804   5.441  0.00  0.00    +0.000 HD
ATOM     34  H   UNL     1      -7.034 -11.626   6.122  0.00  0.00    +0.000 HD
BRANCH  32  36
ATOM     35 CL   UNL     1      -6.740 -12.315   3.139  0.00  0.00    +0.000 Cl
ATOM     36  C   UNL     1      -6.143 -12.967   4.682  0.00  0.00    +0.000 C 
ATOM     37  H   UNL     1      -6.001 -14.044   4.555  0.00  0.00    +0.000 HD
ATOM     38  H   UNL     1      -5.169 -12.509   4.883  0.00  0.00    +0.000 HD
ENDBRANCH  32  36
ENDBRANCH  29  32
ENDBRANCH  26  29
ENDBRANCH  23  26
ENDBRANCH   1  23
TORSDOF 11
ENDMDL
MODEL 9
REMARK VINA RESULT:    -4.089     19.434     20.930
REMARK INTER + INTRA:          -7.991
REMARK INTER:                  -7.618
REMARK INTRA:                  -0.373
REMARK UNBOUND:                -1.393
REMARK  Name = 8192
REMARK  11 active torsions:
REMARK  status: ('A' for Active; 'I' for Inactive)
REMARK    1  A    between atoms: C_2  and  C_3
REMARK    2  A    between atoms: C_2  and  C_4
REMARK    3  A    between atoms: C_3  and  C_5
REMARK    4  A    between atoms: C_4  and  C_6
REMARK    5  A    between atoms: C_5  and  C_7
REMARK    6  A    between atoms: C_6  and  C_8
REMARK    7  A    between atoms: C_7  and  C_9
REMARK    8  A    between atoms: C_8  and  C_10
REMARK    9  A    between atoms: C_9  and  C_11
REMARK   10  A    between atoms: C_10  and  C_12
REMARK   11  A    between atoms: C_11  and  C_13
REMARK                            x       y       z     vdW  Elec       q    Type
REMARK                         _______ _______ _______ _____ _____    ______ ____
ROOT
ATOM      1  C   UNL     1      -0.194  -7.993  17.899  0.00  0.00    +0.000 C 
ATOM      2  H   UNL     1      -0.090  -7.977  18.989  0.00  0.00    +0.000 HD
ATOM      3  H   UNL     1      -1.257  -7.839  17.672  0.00  0.00    +0.000 HD
ENDROOT
BRANCH   1   4
ATOM      4  C   UNL     1       0.256  -9.353  17.357  0.00  0.00    +0.000 C 
ATOM      5  H   UNL     1       0.368  -9.297  16.267  0.00  0.00    +0.000 HD
ATOM      6  H   UNL     1       1.239  -9.609  17.771  0.00  0.00    +0.000 HD
BRANCH   4   7
ATOM      7  C   UNL     1      -0.748 -10.452  17.714  0.00  0.00    +0.000 C 
ATOM      8  H   UNL     1      -1.707 -10.231  17.230  0.00  0.00    +0.000 HD
ATOM      9  H   UNL     1      -0.929 -10.441  18.796  0.00  0.00    +0.000 HD
BRANCH   7  10
ATOM     10  C   UNL     1      -0.290 -11.852  17.297  0.00  0.00    +0.000 C 
ATOM     11  H   UNL     1       0.281 -11.779  16.363  0.00  0.00    +0.000 HD
ATOM     12  H   UNL     1       0.397 -12.244  18.057  0.00  0.00    +0.000 HD
BRANCH  10  13
ATOM     13  C   UNL     1      -1.446 -12.836  17.100  0.00  0.00    +0.000 C 
ATOM     14  H   UNL     1      -1.471 -13.546  17.936  0.00  0.00    +0.000 HD
ATOM     15  H   UNL     1      -1.276 -13.418  16.187  0.00  0.00    +0.000 HD
BRANCH  13  16
ATOM     16  C   UNL     1      -2.785 -12.105  17.005  0.00  0.00    +0.000 C 
ATOM     17  H   UNL     1      -2.685 -11.091  17.409  0.00  0.00    +0.000 HD
ATOM     18  H   UNL     1      -3.083 -12.008  15.954  0.00  0.00    +0.000 HD
BRANCH  16  19
ATOM     19  C   UNL     1      -3.878 -12.841  17.763  0.00  0.00    +0.000 C 
ATOM     20  H   UNL     1      -4.453 -12.152  18.390  0.00  0.00    +0.000 HD
ATOM     21  H   UNL     1      -4.569 -13.336  17.072  0.00  0.00    +0.000 HD
ATOM     22  H   UNL     1      -3.441 -13.607  18.411  0.00  0.00    +0.000 HD
ENDBRANCH  16  19
ENDBRANCH  13  16
ENDBRANCH  10  13
ENDBRANCH   7  10
ENDBRANCH   4   7
ENDBRANCH   1   4
BRANCH   1  23
ATOM     23  C   UNL     1       0.629  -6.856  17.292  0.00  0.00    +0.000 C 
ATOM     24  H   UNL     1       1.110  -6.284  18.095  0.00  0.00    +0.000 HD
ATOM     25  H   UNL     1       1.435  -7.280  16.680  0.00  0.00    +0.000 HD
BRANCH  23  26
ATOM     26  C   UNL     1      -0.196  -5.897  16.428  0.00  0.00    +0.000 C 
ATOM     27  H   UNL     1      -0.633  -6.466  15.596  0.00  0.00    +0.000 HD
ATOM     28  H   UNL     1      -1.040  -5.527  17.025  0.00  0.00    +0.000 HD
BRANCH  26  29
ATOM     29  C   UNL     1       0.560  -4.697  15.851  0.00  0.00    +0.000 C 
ATOM     30  H   UNL     1       0.174  -3.779  16.310  0.00  0.00    +0.000 HD
ATOM     31  H   UNL     1       0.346  -4.627  14.777  0.00  0.00    +0.000 HD
BRANCH  29  32
ATOM     32  C   UNL     1       2.074  -4.771  16.063  0.00  0.00    +0.000 C 
ATOM     33  H   UNL     1       2.357  -4.107  16.889  0.00  0.00    +0.000 HD
ATOM     34  H   UNL     1       2.352  -5.790  16.356  0.00  0.00    +0.000 HD
BRANCH  32  36
ATOM     35 CL   UNL     1       3.316  -2.667  14.876  0.00  0.00    +0.000 Cl
ATOM     36  C   UNL     1       2.823  -4.373  14.797  0.00  0.00    +0.000 C 
ATOM     37  H   UNL     1       2.193  -4.496  13.910  0.00  0.00    +0.000 HD
ATOM     38  H   UNL     1       3.727  -4.976  14.667  0.00  0.00    +0.000 HD
ENDBRANCH  32  36
ENDBRANCH  29  32
ENDBRANCH  26  29
ENDBRANCH  23  26
ENDBRANCH   1  23
TORSDOF 11
ENDMDL
MODEL 10
REMARK VINA RESULT:    -4.014     15.240     17.374
REMARK INTER + INTRA:          -7.871
REMARK INTER:                  -6.478
REMARK INTRA:                  -1.393
REMARK UNBOUND:                -1.393
REMARK  Name = 8192
REMARK  11 active torsions:
REMARK  status: ('A' for Active; 'I' for Inactive)
REMARK    1  A    between atoms: C_2  and  C_3
REMARK    2  A    between atoms: C_2  and  C_4
REMARK    3  A    between atoms: C_3  and  C_5
REMARK    4  A    between atoms: C_4  and  C_6
REMARK    5  A    between atoms: C_5  and  C_7
REMARK    6  A    between atoms: C_6  and  C_8
REMARK    7  A    between atoms: C_7  and  C_9
REMARK    8  A    between atoms: C_8  and  C_10
REMARK    9  A    between atoms: C_9  and  C_11
REMARK   10  A    between atoms: C_10  and  C_12
REMARK   11  A    between atoms: C_11  and  C_13
REMARK                            x       y       z     vdW  Elec       q    Type
REMARK                         _______ _______ _______ _____ _____    ______ ____
ROOT
ATOM      1  C   UNL     1      -6.087  -6.434  -9.897  0.00  0.00    +0.000 C 
ATOM      2  H   UNL     1      -6.808  -7.256  -9.963  0.00  0.00    +0.000 HD
ATOM      3  H   UNL     1      -6.526  -5.575 -10.419  0.00  0.00    +0.000 HD
ENDROOT
BRANCH   1   4
ATOM      4  C   UNL     1      -4.778  -6.840 -10.582  0.00  0.00    +0.000 C 
ATOM      5  H   UNL     1      -4.865  -7.864 -10.966  0.00  0.00    +0.000 HD
ATOM      6  H   UNL     1      -4.593  -6.186 -11.442  0.00  0.00    +0.000 HD
BRANCH   4   7
ATOM      7  C   UNL     1      -3.596  -6.754  -9.614  0.00  0.00    +0.000 C 
ATOM      8  H   UNL     1      -3.943  -6.328  -8.663  0.00  0.00    +0.000 HD
ATOM      9  H   UNL     1      -2.846  -6.061 -10.015  0.00  0.00    +0.000 HD
BRANCH   7  10
ATOM     10  C   UNL     1      -2.933  -8.106  -9.341  0.00  0.00    +0.000 C 
ATOM     11  H   UNL     1      -1.889  -8.067  -9.676  0.00  0.00    +0.000 HD
ATOM     12  H   UNL     1      -2.911  -8.282  -8.259  0.00  0.00    +0.000 HD
BRANCH  10  13
ATOM     13  C   UNL     1      -3.635  -9.277 -10.033  0.00  0.00    +0.000 C 
ATOM     14  H   UNL     1      -2.939  -9.764 -10.727  0.00  0.00    +0.000 HD
ATOM     15  H   UNL     1      -4.474  -8.899 -10.629  0.00  0.00    +0.000 HD
BRANCH  13  16
ATOM     16  C   UNL     1      -4.144 -10.297  -9.014  0.00  0.00    +0.000 C 
ATOM     17  H   UNL     1      -5.216 -10.471  -9.166  0.00  0.00    +0.000 HD
ATOM     18  H   UNL     1      -3.636 -11.258  -9.162  0.00  0.00    +0.000 HD
BRANCH  16  19
ATOM     19  C   UNL     1      -3.910  -9.826  -7.588  0.00  0.00    +0.000 C 
ATOM     20  H   UNL     1      -4.837  -9.860  -7.006  0.00  0.00    +0.000 HD
ATOM     21  H   UNL     1      -3.166 -10.455  -7.086  0.00  0.00    +0.000 HD
ATOM     22  H   UNL     1      -3.543  -8.796  -7.584  0.00  0.00    +0.000 HD
ENDBRANCH  16  19
ENDBRANCH  13  16
ENDBRANCH  10  13
ENDBRANCH   7  10
ENDBRANCH   4   7
ENDBRANCH   1   4
BRANCH   1  23
ATOM     23  C   UNL     1      -5.854  -6.078  -8.428  0.00  0.00    +0.000 C 
ATOM     24  H   UNL     1      -4.790  -6.192  -8.188  0.00  0.00    +0.000 HD
ATOM     25  H   UNL     1      -6.103  -5.021  -8.268  0.00  0.00    +0.000 HD
BRANCH  23  26
ATOM     26  C   UNL     1      -6.674  -6.932  -7.455  0.00  0.00    +0.000 C 
ATOM     27  H   UNL     1      -6.051  -7.154  -6.578  0.00  0.00    +0.000 HD
ATOM     28  H   UNL     1      -7.518  -6.332  -7.088  0.00  0.00    +0.000 HD
BRANCH  26  29
ATOM     29  C   UNL     1      -7.214  -8.251  -8.013  0.00  0.00    +0.000 C 
ATOM     30  H   UNL     1      -6.385  -8.813  -8.462  0.00  0.00    +0.000 HD
ATOM     31  H   UNL     1      -7.920  -8.030  -8.823  0.00  0.00    +0.000 HD
BRANCH  29  32
ATOM     32  C   UNL     1      -7.903  -9.123  -6.961  0.00  0.00    +0.000 C 
ATOM     33  H   UNL     1      -8.912  -8.736  -6.774  0.00  0.00    +0.000 HD
ATOM     34  H   UNL     1      -8.013 -10.143  -7.349  0.00  0.00    +0.000 HD
BRANCH  32  36
ATOM     35 CL   UNL     1      -8.191  -9.356  -4.271  0.00  0.00    +0.000 Cl
ATOM     36  C   UNL     1      -7.106  -9.145  -5.663  0.00  0.00    +0.000 C 
ATOM     37  H   UNL     1      -6.558  -8.208  -5.519  0.00  0.00    +0.000 HD
ATOM     38  H   UNL     1      -6.388  -9.971  -5.654  0.00  0.00    +0.000 HD
ENDBRANCH  32  36
ENDBRANCH  29  32
ENDBRANCH  26  29
ENDBRANCH  23  26
ENDBRANCH   1  23
TORSDOF 11
ENDMDL
