MODEL 1
REMARK VINA RESULT:    -4.448      0.000      0.000
REMARK INTER + INTRA:          -6.781
REMARK INTER:                  -6.318
REMARK INTRA:                  -0.463
REMARK UNBOUND:                -0.254
REMARK  Name = 8914
REMARK  9 active torsions:
REMARK  status: ('A' for Active; 'I' for Inactive)
REMARK    1  A    between atoms: O_1  and  C_9
REMARK    2  A    between atoms: C_2  and  C_3
REMARK    3  A    between atoms: C_2  and  C_4
REMARK    4  A    between atoms: C_3  and  C_5
REMARK    5  A    between atoms: C_4  and  C_6
REMARK    6  A    between atoms: C_5  and  C_7
REMARK    7  A    between atoms: C_6  and  C_8
REMARK    8  A    between atoms: C_7  and  C_9
REMARK    9  A    between atoms: C_8  and  C_10
REMARK                            x       y       z     vdW  Elec       q    Type
REMARK                         _______ _______ _______ _____ _____    ______ ____
ROOT
ATOM      1  C   UNL     1       0.874  -6.439  16.683  0.00  0.00    +0.000 C 
ATOM      2  H   UNL     1       0.351  -6.845  17.558  0.00  0.00    +0.000 HD
ATOM      3  H   UNL     1       1.901  -6.220  17.003  0.00  0.00    +0.000 HD
ENDROOT
BRANCH   1   4
ATOM      4  C   UNL     1       0.195  -5.142  16.241  0.00  0.00    +0.000 C 
ATOM      5  H   UNL     1       0.093  -4.470  17.103  0.00  0.00    +0.000 HD
ATOM      6  H   UNL     1      -0.817  -5.364  15.882  0.00  0.00    +0.000 HD
BRANCH   4   7
ATOM      7  C   UNL     1       0.992  -4.446  15.135  0.00  0.00    +0.000 C 
ATOM      8  H   UNL     1       1.126  -5.134  14.291  0.00  0.00    +0.000 HD
ATOM      9  H   UNL     1       0.429  -3.582  14.762  0.00  0.00    +0.000 HD
BRANCH   7  10
ATOM     10  C   UNL     1       2.360  -3.983  15.642  0.00  0.00    +0.000 C 
ATOM     11  H   UNL     1       2.328  -3.824  16.727  0.00  0.00    +0.000 HD
ATOM     12  H   UNL     1       3.105  -4.773  15.478  0.00  0.00    +0.000 HD
BRANCH  10  13
ATOM     13  C   UNL     1       2.825  -2.703  14.960  0.00  0.00    +0.000 C 
ATOM     14  H   UNL     1       3.312  -2.027  15.670  0.00  0.00    +0.000 HD
ATOM     15  H   UNL     1       3.535  -2.926  14.157  0.00  0.00    +0.000 HD
BRANCH  13  16
ATOM     16  O   UNL     1       1.713  -2.029  14.387  0.00  0.00    +0.000 OA
ATOM     17  H   UNL     1       2.036  -1.185  14.028  0.00  0.00    +0.000 HD
ENDBRANCH  13  16
ENDBRANCH  10  13
ENDBRANCH   7  10
ENDBRANCH   4   7
ENDBRANCH   1   4
BRANCH   1  18
ATOM     18  C   UNL     1       0.917  -7.511  15.588  0.00  0.00    +0.000 C 
ATOM     19  H   UNL     1       0.412  -8.412  15.959  0.00  0.00    +0.000 HD
ATOM     20  H   UNL     1       0.325  -7.156  14.734  0.00  0.00    +0.000 HD
BRANCH  18  21
ATOM     21  C   UNL     1       2.310  -7.901  15.087  0.00  0.00    +0.000 C 
ATOM     22  H   UNL     1       2.471  -8.971  15.274  0.00  0.00    +0.000 HD
ATOM     23  H   UNL     1       3.060  -7.361  15.680  0.00  0.00    +0.000 HD
BRANCH  21  24
ATOM     24  C   UNL     1       2.529  -7.603  13.605  0.00  0.00    +0.000 C 
ATOM     25  H   UNL     1       1.586  -7.725  13.058  0.00  0.00    +0.000 HD
ATOM     26  H   UNL     1       2.847  -6.562  13.477  0.00  0.00    +0.000 HD
BRANCH  24  27
ATOM     27  C   UNL     1       3.584  -8.521  13.005  0.00  0.00    +0.000 C 
ATOM     28  H   UNL     1       4.018  -8.065  12.109  0.00  0.00    +0.000 HD
ATOM     29  H   UNL     1       4.394  -8.707  13.717  0.00  0.00    +0.000 HD
ATOM     30  H   UNL     1       3.149  -9.484  12.718  0.00  0.00    +0.000 HD
ENDBRANCH  24  27
ENDBRANCH  21  24
ENDBRANCH  18  21
ENDBRANCH   1  18
TORSDOF 9
ENDMDL
MODEL 2
REMARK VINA RESULT:    -4.394      2.408      4.467
REMARK INTER + INTRA:          -6.702
REMARK INTER:                  -6.317
REMARK INTRA:                  -0.385
REMARK UNBOUND:                -0.254
REMARK  Name = 8914
REMARK  9 active torsions:
REMARK  status: ('A' for Active; 'I' for Inactive)
REMARK    1  A    between atoms: O_1  and  C_9
REMARK    2  A    between atoms: C_2  and  C_3
REMARK    3  A    between atoms: C_2  and  C_4
REMARK    4  A    between atoms: C_3  and  C_5
REMARK    5  A    between atoms: C_4  and  C_6
REMARK    6  A    between atoms: C_5  and  C_7
REMARK    7  A    between atoms: C_6  and  C_8
REMARK    8  A    between atoms: C_7  and  C_9
REMARK    9  A    between atoms: C_8  and  C_10
REMARK                            x       y       z     vdW  Elec       q    Type
REMARK                         _______ _______ _______ _____ _____    ______ ____
ROOT
ATOM      1  C   UNL     1       0.467  -6.097  16.593  0.00  0.00    +0.000 C 
ATOM      2  H   UNL     1       0.609  -5.965  17.673  0.00  0.00    +0.000 HD
ATOM      3  H   UNL     1      -0.549  -6.489  16.454  0.00  0.00    +0.000 HD
ENDROOT
BRANCH   1   4
ATOM      4  C   UNL     1       1.479  -7.118  16.070  0.00  0.00    +0.000 C 
ATOM      5  H   UNL     1       1.373  -8.058  16.626  0.00  0.00    +0.000 HD
ATOM      6  H   UNL     1       2.496  -6.749  16.249  0.00  0.00    +0.000 HD
BRANCH   4   7
ATOM      7  C   UNL     1       1.283  -7.378  14.574  0.00  0.00    +0.000 C 
ATOM      8  H   UNL     1       0.960  -8.415  14.420  0.00  0.00    +0.000 HD
ATOM      9  H   UNL     1       0.487  -6.730  14.188  0.00  0.00    +0.000 HD
BRANCH   7  10
ATOM     10  C   UNL     1       2.573  -7.121  13.791  0.00  0.00    +0.000 C 
ATOM     11  H   UNL     1       2.341  -6.871  12.748  0.00  0.00    +0.000 HD
ATOM     12  H   UNL     1       3.090  -6.243  14.201  0.00  0.00    +0.000 HD
BRANCH  10  13
ATOM     13  C   UNL     1       3.515  -8.317  13.823  0.00  0.00    +0.000 C 
ATOM     14  H   UNL     1       4.412  -8.104  14.415  0.00  0.00    +0.000 HD
ATOM     15  H   UNL     1       3.019  -9.191  14.258  0.00  0.00    +0.000 HD
BRANCH  13  16
ATOM     16  O   UNL     1       3.917  -8.653  12.503  0.00  0.00    +0.000 OA
ATOM     17  H   UNL     1       4.633  -8.045  12.251  0.00  0.00    +0.000 HD
ENDBRANCH  13  16
ENDBRANCH  10  13
ENDBRANCH   7  10
ENDBRANCH   4   7
ENDBRANCH   1   4
BRANCH   1  18
ATOM     18  C   UNL     1       0.567  -4.730  15.908  0.00  0.00    +0.000 C 
ATOM     19  H   UNL     1       0.239  -4.834  14.866  0.00  0.00    +0.000 HD
ATOM     20  H   UNL     1      -0.147  -4.049  16.389  0.00  0.00    +0.000 HD
BRANCH  18  21
ATOM     21  C   UNL     1       1.951  -4.075  15.922  0.00  0.00    +0.000 C 
ATOM     22  H   UNL     1       2.710  -4.836  15.701  0.00  0.00    +0.000 HD
ATOM     23  H   UNL     1       2.156  -3.710  16.937  0.00  0.00    +0.000 HD
BRANCH  21  24
ATOM     24  C   UNL     1       2.087  -2.918  14.934  0.00  0.00    +0.000 C 
ATOM     25  H   UNL     1       1.618  -3.188  13.980  0.00  0.00    +0.000 HD
ATOM     26  H   UNL     1       1.559  -2.037  15.317  0.00  0.00    +0.000 HD
BRANCH  24  27
ATOM     27  C   UNL     1       3.546  -2.558  14.697  0.00  0.00    +0.000 C 
ATOM     28  H   UNL     1       3.629  -1.819  13.894  0.00  0.00    +0.000 HD
ATOM     29  H   UNL     1       3.996  -2.132  15.599  0.00  0.00    +0.000 HD
ATOM     30  H   UNL     1       4.125  -3.441  14.408  0.00  0.00    +0.000 HD
ENDBRANCH  24  27
ENDBRANCH  21  24
ENDBRANCH  18  21
ENDBRANCH   1  18
TORSDOF 9
ENDMDL
MODEL 3
REMARK VINA RESULT:    -4.284      2.394      3.072
REMARK INTER + INTRA:          -6.541
REMARK INTER:                  -6.195
REMARK INTRA:                  -0.346
REMARK UNBOUND:                -0.254
REMARK  Name = 8914
REMARK  9 active torsions:
REMARK  status: ('A' for Active; 'I' for Inactive)
REMARK    1  A    between atoms: O_1  and  C_9
REMARK    2  A    between atoms: C_2  and  C_3
REMARK    3  A    between atoms: C_2  and  C_4
REMARK    4  A    between atoms: C_3  and  C_5
REMARK    5  A    between atoms: C_4  and  C_6
REMARK    6  A    between atoms: C_5  and  C_7
REMARK    7  A    between atoms: C_6  and  C_8
REMARK    8  A    between atoms: C_7  and  C_9
REMARK    9  A    between atoms: C_8  and  C_10
REMARK                            x       y       z     vdW  Elec       q    Type
REMARK                         _______ _______ _______ _____ _____    ______ ____
ROOT
ATOM      1  C   UNL     1       0.632  -4.820  15.731  0.00  0.00    +0.000 C 
ATOM      2  H   UNL     1       0.634  -5.135  14.680  0.00  0.00    +0.000 HD
ATOM      3  H   UNL     1       0.247  -3.792  15.752  0.00  0.00    +0.000 HD
ENDROOT
BRANCH   1   4
ATOM      4  C   UNL     1       2.065  -4.834  16.268  0.00  0.00    +0.000 C 
ATOM      5  H   UNL     1       2.667  -5.543  15.688  0.00  0.00    +0.000 HD
ATOM      6  H   UNL     1       2.061  -5.187  17.307  0.00  0.00    +0.000 HD
BRANCH   4   7
ATOM      7  C   UNL     1       2.697  -3.442  16.201  0.00  0.00    +0.000 C 
ATOM      8  H   UNL     1       1.909  -2.679  16.231  0.00  0.00    +0.000 HD
ATOM      9  H   UNL     1       3.336  -3.283  17.078  0.00  0.00    +0.000 HD
BRANCH   7  10
ATOM     10  C   UNL     1       3.528  -3.270  14.927  0.00  0.00    +0.000 C 
ATOM     11  H   UNL     1       4.568  -3.030  15.183  0.00  0.00    +0.000 HD
ATOM     12  H   UNL     1       3.568  -4.219  14.376  0.00  0.00    +0.000 HD
BRANCH  10  13
ATOM     13  C   UNL     1       2.971  -2.184  14.017  0.00  0.00    +0.000 C 
ATOM     14  H   UNL     1       3.603  -1.290  14.029  0.00  0.00    +0.000 HD
ATOM     15  H   UNL     1       2.902  -2.539  12.984  0.00  0.00    +0.000 HD
BRANCH  13  16
ATOM     16  O   UNL     1       1.666  -1.817  14.443  0.00  0.00    +0.000 OA
ATOM     17  H   UNL     1       1.279  -1.255  13.751  0.00  0.00    +0.000 HD
ENDBRANCH  13  16
ENDBRANCH  10  13
ENDBRANCH   7  10
ENDBRANCH   4   7
ENDBRANCH   1   4
BRANCH   1  18
ATOM     18  C   UNL     1      -0.325  -5.722  16.517  0.00  0.00    +0.000 C 
ATOM     19  H   UNL     1      -0.011  -5.735  17.569  0.00  0.00    +0.000 HD
ATOM     20  H   UNL     1      -1.323  -5.265  16.500  0.00  0.00    +0.000 HD
BRANCH  18  21
ATOM     21  C   UNL     1      -0.441  -7.166  16.022  0.00  0.00    +0.000 C 
ATOM     22  H   UNL     1       0.408  -7.388  15.364  0.00  0.00    +0.000 HD
ATOM     23  H   UNL     1      -1.347  -7.255  15.409  0.00  0.00    +0.000 HD
BRANCH  21  24
ATOM     24  C   UNL     1      -0.493  -8.194  17.152  0.00  0.00    +0.000 C 
ATOM     25  H   UNL     1      -1.536  -8.465  17.359  0.00  0.00    +0.000 HD
ATOM     26  H   UNL     1       0.025  -9.110  16.845  0.00  0.00    +0.000 HD
BRANCH  24  27
ATOM     27  C   UNL     1       0.152  -7.658  18.420  0.00  0.00    +0.000 C 
ATOM     28  H   UNL     1       1.190  -7.998  18.490  0.00  0.00    +0.000 HD
ATOM     29  H   UNL     1       0.152  -6.564  18.429  0.00  0.00    +0.000 HD
ATOM     30  H   UNL     1      -0.380  -8.009  19.310  0.00  0.00    +0.000 HD
ENDBRANCH  24  27
ENDBRANCH  21  24
ENDBRANCH  18  21
ENDBRANCH   1  18
TORSDOF 9
ENDMDL
MODEL 4
REMARK VINA RESULT:    -4.282      3.481      5.108
REMARK INTER + INTRA:          -6.538
REMARK INTER:                  -6.145
REMARK INTRA:                  -0.393
REMARK UNBOUND:                -0.254
REMARK  Name = 8914
REMARK  9 active torsions:
REMARK  status: ('A' for Active; 'I' for Inactive)
REMARK    1  A    between atoms: O_1  and  C_9
REMARK    2  A    between atoms: C_2  and  C_3
REMARK    3  A    between atoms: C_2  and  C_4
REMARK    4  A    between atoms: C_3  and  C_5
REMARK    5  A    between atoms: C_4  and  C_6
REMARK    6  A    between atoms: C_5  and  C_7
REMARK    7  A    between atoms: C_6  and  C_8
REMARK    8  A    between atoms: C_7  and  C_9
REMARK    9  A    between atoms: C_8  and  C_10
REMARK                            x       y       z     vdW  Elec       q    Type
REMARK                         _______ _______ _______ _____ _____    ______ ____
ROOT
ATOM      1  C   UNL     1       0.104  -6.583  15.313  0.00  0.00    +0.000 C 
ATOM      2  H   UNL     1      -0.676  -6.850  14.589  0.00  0.00    +0.000 HD
ATOM      3  H   UNL     1       0.755  -7.461  15.414  0.00  0.00    +0.000 HD
ENDROOT
BRANCH   1   4
ATOM      4  C   UNL     1      -0.542  -6.275  16.665  0.00  0.00    +0.000 C 
ATOM      5  H   UNL     1      -1.628  -6.183  16.541  0.00  0.00    +0.000 HD
ATOM      6  H   UNL     1      -0.175  -5.310  17.034  0.00  0.00    +0.000 HD
BRANCH   4   7
ATOM      7  C   UNL     1      -0.230  -7.368  17.691  0.00  0.00    +0.000 C 
ATOM      8  H   UNL     1      -0.010  -6.908  18.662  0.00  0.00    +0.000 HD
ATOM      9  H   UNL     1      -1.110  -8.008  17.828  0.00  0.00    +0.000 HD
BRANCH   7  10
ATOM     10  C   UNL     1       0.959  -8.224  17.247  0.00  0.00    +0.000 C 
ATOM     11  H   UNL     1       1.159  -8.070  16.179  0.00  0.00    +0.000 HD
ATOM     12  H   UNL     1       1.868  -7.902  17.771  0.00  0.00    +0.000 HD
BRANCH  10  13
ATOM     13  C   UNL     1       0.729  -9.708  17.506  0.00  0.00    +0.000 C 
ATOM     14  H   UNL     1       1.214 -10.326  16.743  0.00  0.00    +0.000 HD
ATOM     15  H   UNL     1       1.126  -9.997  18.484  0.00  0.00    +0.000 HD
BRANCH  13  16
ATOM     16  O   UNL     1      -0.663  -9.991  17.495  0.00  0.00    +0.000 OA
ATOM     17  H   UNL     1      -0.778 -10.905  17.808  0.00  0.00    +0.000 HD
ENDBRANCH  13  16
ENDBRANCH  10  13
ENDBRANCH   7  10
ENDBRANCH   4   7
ENDBRANCH   1   4
BRANCH   1  18
ATOM     18  C   UNL     1       0.927  -5.420  14.749  0.00  0.00    +0.000 C 
ATOM     19  H   UNL     1       1.821  -5.826  14.260  0.00  0.00    +0.000 HD
ATOM     20  H   UNL     1       0.340  -4.931  13.961  0.00  0.00    +0.000 HD
BRANCH  18  21
ATOM     21  C   UNL     1       1.364  -4.357  15.761  0.00  0.00    +0.000 C 
ATOM     22  H   UNL     1       2.237  -4.726  16.314  0.00  0.00    +0.000 HD
ATOM     23  H   UNL     1       0.560  -4.221  16.496  0.00  0.00    +0.000 HD
BRANCH  21  24
ATOM     24  C   UNL     1       1.697  -3.009  15.123  0.00  0.00    +0.000 C 
ATOM     25  H   UNL     1       1.158  -2.905  14.174  0.00  0.00    +0.000 HD
ATOM     26  H   UNL     1       1.365  -2.195  15.777  0.00  0.00    +0.000 HD
BRANCH  24  27
ATOM     27  C   UNL     1       3.191  -2.868  14.874  0.00  0.00    +0.000 C 
ATOM     28  H   UNL     1       3.616  -3.826  14.559  0.00  0.00    +0.000 HD
ATOM     29  H   UNL     1       3.391  -2.133  14.088  0.00  0.00    +0.000 HD
ATOM     30  H   UNL     1       3.712  -2.549  15.784  0.00  0.00    +0.000 HD
ENDBRANCH  24  27
ENDBRANCH  21  24
ENDBRANCH  18  21
ENDBRANCH   1  18
TORSDOF 9
ENDMDL
MODEL 5
REMARK VINA RESULT:    -4.227     22.847     24.510
REMARK INTER + INTRA:          -6.457
REMARK INTER:                  -5.906
REMARK INTRA:                  -0.551
REMARK UNBOUND:                -0.254
REMARK  Name = 8914
REMARK  9 active torsions:
REMARK  status: ('A' for Active; 'I' for Inactive)
REMARK    1  A    between atoms: O_1  and  C_9
REMARK    2  A    between atoms: C_2  and  C_3
REMARK    3  A    between atoms: C_2  and  C_4
REMARK    4  A    between atoms: C_3  and  C_5
REMARK    5  A    between atoms: C_4  and  C_6
REMARK    6  A    between atoms: C_5  and  C_7
REMARK    7  A    between atoms: C_6  and  C_8
REMARK    8  A    between atoms: C_7  and  C_9
REMARK    9  A    between atoms: C_8  and  C_10
REMARK                            x       y       z     vdW  Elec       q    Type
REMARK                         _______ _______ _______ _____ _____    ______ ____
ROOT
ATOM      1  C   UNL     1      -2.999  -8.772  -8.862  0.00  0.00    +0.000 C 
ATOM      2  H   UNL     1      -1.946  -9.079  -8.907  0.00  0.00    +0.000 HD
ATOM      3  H   UNL     1      -3.137  -8.254  -7.905  0.00  0.00    +0.000 HD
ENDROOT
BRANCH   1   4
ATOM      4  C   UNL     1      -3.892 -10.014  -8.898  0.00  0.00    +0.000 C 
ATOM      5  H   UNL     1      -3.345 -10.845  -9.360  0.00  0.00    +0.000 HD
ATOM      6  H   UNL     1      -4.768  -9.815  -9.526  0.00  0.00    +0.000 HD
BRANCH   4   7
ATOM      7  C   UNL     1      -4.347 -10.411  -7.492  0.00  0.00    +0.000 C 
ATOM      8  H   UNL     1      -4.941 -11.332  -7.545  0.00  0.00    +0.000 HD
ATOM      9  H   UNL     1      -3.472 -10.626  -6.867  0.00  0.00    +0.000 HD
BRANCH   7  10
ATOM     10  C   UNL     1      -5.178  -9.301  -6.842  0.00  0.00    +0.000 C 
ATOM     11  H   UNL     1      -4.532  -8.460  -6.561  0.00  0.00    +0.000 HD
ATOM     12  H   UNL     1      -5.895  -8.898  -7.568  0.00  0.00    +0.000 HD
BRANCH  10  13
ATOM     13  C   UNL     1      -5.930  -9.790  -5.611  0.00  0.00    +0.000 C 
ATOM     14  H   UNL     1      -6.991  -9.949  -5.829  0.00  0.00    +0.000 HD
ATOM     15  H   UNL     1      -5.510 -10.735  -5.249  0.00  0.00    +0.000 HD
BRANCH  13  16
ATOM     16  O   UNL     1      -5.824  -8.833  -4.566  0.00  0.00    +0.000 OA
ATOM     17  H   UNL     1      -4.974  -8.982  -4.118  0.00  0.00    +0.000 HD
ENDBRANCH  13  16
ENDBRANCH  10  13
ENDBRANCH   7  10
ENDBRANCH   4   7
ENDBRANCH   1   4
BRANCH   1  18
ATOM     18  C   UNL     1      -3.278  -7.786 -10.001  0.00  0.00    +0.000 C 
ATOM     19  H   UNL     1      -2.325  -7.518 -10.475  0.00  0.00    +0.000 HD
ATOM     20  H   UNL     1      -3.869  -8.301 -10.769  0.00  0.00    +0.000 HD
BRANCH  18  21
ATOM     21  C   UNL     1      -4.008  -6.498  -9.608  0.00  0.00    +0.000 C 
ATOM     22  H   UNL     1      -3.731  -5.701 -10.310  0.00  0.00    +0.000 HD
ATOM     23  H   UNL     1      -3.654  -6.183  -8.617  0.00  0.00    +0.000 HD
BRANCH  21  24
ATOM     24  C   UNL     1      -5.528  -6.645  -9.578  0.00  0.00    +0.000 C 
ATOM     25  H   UNL     1      -5.965  -6.169 -10.464  0.00  0.00    +0.000 HD
ATOM     26  H   UNL     1      -5.800  -7.706  -9.612  0.00  0.00    +0.000 HD
BRANCH  24  27
ATOM     27  C   UNL     1      -6.121  -6.021  -8.323  0.00  0.00    +0.000 C 
ATOM     28  H   UNL     1      -5.746  -6.533  -7.432  0.00  0.00    +0.000 HD
ATOM     29  H   UNL     1      -5.851  -4.964  -8.246  0.00  0.00    +0.000 HD
ATOM     30  H   UNL     1      -7.213  -6.099  -8.325  0.00  0.00    +0.000 HD
ENDBRANCH  24  27
ENDBRANCH  21  24
ENDBRANCH  18  21
ENDBRANCH   1  18
TORSDOF 9
ENDMDL
MODEL 6
REMARK VINA RESULT:    -4.178     22.535     25.096
REMARK INTER + INTRA:          -6.385
REMARK INTER:                  -6.204
REMARK INTRA:                  -0.181
REMARK UNBOUND:                -0.254
REMARK  Name = 8914
REMARK  9 active torsions:
REMARK  status: ('A' for Active; 'I' for Inactive)
REMARK    1  A    between atoms: O_1  and  C_9
REMARK    2  A    between atoms: C_2  and  C_3
REMARK    3  A    between atoms: C_2  and  C_4
REMARK    4  A    between atoms: C_3  and  C_5
REMARK    5  A    between atoms: C_4  and  C_6
REMARK    6  A    between atoms: C_5  and  C_7
REMARK    7  A    between atoms: C_6  and  C_8
REMARK    8  A    between atoms: C_7  and  C_9
REMARK    9  A    between atoms: C_8  and  C_10
REMARK                            x       y       z     vdW  Elec       q    Type
REMARK                         _______ _______ _______ _____ _____    ______ ____
ROOT
ATOM      1  C   UNL     1       6.700  12.929  -0.966  0.00  0.00    +0.000 C 
ATOM      2  H   UNL     1       6.131  12.646  -1.861  0.00  0.00    +0.000 HD
ATOM      3  H   UNL     1       6.347  13.925  -0.670  0.00  0.00    +0.000 HD
ENDROOT
BRANCH   1   4
ATOM      4  C   UNL     1       8.188  13.003  -1.313  0.00  0.00    +0.000 C 
ATOM      5  H   UNL     1       8.773  13.124  -0.393  0.00  0.00    +0.000 HD
ATOM      6  H   UNL     1       8.375  13.888  -1.934  0.00  0.00    +0.000 HD
BRANCH   4   7
ATOM      7  C   UNL     1       8.648  11.747  -2.056  0.00  0.00    +0.000 C 
ATOM      8  H   UNL     1       9.623  11.427  -1.669  0.00  0.00    +0.000 HD
ATOM      9  H   UNL     1       7.942  10.929  -1.872  0.00  0.00    +0.000 HD
BRANCH   7  10
ATOM     10  C   UNL     1       8.752  12.000  -3.563  0.00  0.00    +0.000 C 
ATOM     11  H   UNL     1       8.919  11.055  -4.095  0.00  0.00    +0.000 HD
ATOM     12  H   UNL     1       7.799  12.392  -3.942  0.00  0.00    +0.000 HD
BRANCH  10  13
ATOM     13  C   UNL     1       9.870  12.975  -3.908  0.00  0.00    +0.000 C 
ATOM     14  H   UNL     1       9.576  13.646  -4.723  0.00  0.00    +0.000 HD
ATOM     15  H   UNL     1      10.134  13.587  -3.040  0.00  0.00    +0.000 HD
BRANCH  13  16
ATOM     16  O   UNL     1      11.029  12.260  -4.311  0.00  0.00    +0.000 OA
ATOM     17  H   UNL     1      10.800  11.757  -5.111  0.00  0.00    +0.000 HD
ENDBRANCH  13  16
ENDBRANCH  10  13
ENDBRANCH   7  10
ENDBRANCH   4   7
ENDBRANCH   1   4
BRANCH   1  18
ATOM     18  C   UNL     1       6.382  11.938   0.158  0.00  0.00    +0.000 C 
ATOM     19  H   UNL     1       5.420  11.457  -0.059  0.00  0.00    +0.000 HD
ATOM     20  H   UNL     1       7.136  11.141   0.139  0.00  0.00    +0.000 HD
BRANCH  18  21
ATOM     21  C   UNL     1       6.329  12.524   1.572  0.00  0.00    +0.000 C 
ATOM     22  H   UNL     1       6.359  13.619   1.507  0.00  0.00    +0.000 HD
ATOM     23  H   UNL     1       7.232  12.215   2.114  0.00  0.00    +0.000 HD
BRANCH  21  24
ATOM     24  C   UNL     1       5.094  12.095   2.362  0.00  0.00    +0.000 C 
ATOM     25  H   UNL     1       4.224  12.679   2.038  0.00  0.00    +0.000 HD
ATOM     26  H   UNL     1       4.871  11.041   2.161  0.00  0.00    +0.000 HD
BRANCH  24  27
ATOM     27  C   UNL     1       5.300  12.282   3.858  0.00  0.00    +0.000 C 
ATOM     28  H   UNL     1       4.536  12.952   4.265  0.00  0.00    +0.000 HD
ATOM     29  H   UNL     1       5.229  11.326   4.387  0.00  0.00    +0.000 HD
ATOM     30  H   UNL     1       6.281  12.719   4.067  0.00  0.00    +0.000 HD
ENDBRANCH  24  27
ENDBRANCH  21  24
ENDBRANCH  18  21
ENDBRANCH   1  18
TORSDOF 9
ENDMDL
MODEL 7
REMARK VINA RESULT:    -4.139     23.078     24.432
REMARK INTER + INTRA:          -6.328
REMARK INTER:                  -5.837
REMARK INTRA:                  -0.491
REMARK UNBOUND:                -0.254
REMARK  Name = 8914
REMARK  9 active torsions:
REMARK  status: ('A' for Active; 'I' for Inactive)
REMARK    1  A    between atoms: O_1  and  C_9
REMARK    2  A    between atoms: C_2  and  C_3
REMARK    3  A    between atoms: C_2  and  C_4
REMARK    4  A    between atoms: C_3  and  C_5
REMARK    5  A    between atoms: C_4  and  C_6
REMARK    6  A    between atoms: C_5  and  C_7
REMARK    7  A    between atoms: C_6  and  C_8
REMARK    8  A    between atoms: C_7  and  C_9
REMARK    9  A    between atoms: C_8  and  C_10
REMARK                            x       y       z     vdW  Elec       q    Type
REMARK                         _______ _______ _______ _____ _____    ______ ____
ROOT
ATOM      1  C   UNL     1      -6.095  -6.259  -9.724  0.00  0.00    +0.000 C 
ATOM      2  H   UNL     1      -6.018  -5.255 -10.163  0.00  0.00    +0.000 HD
ATOM      3  H   UNL     1      -7.014  -6.707 -10.121  0.00  0.00    +0.000 HD
ENDROOT
BRANCH   1   4
ATOM      4  C   UNL     1      -6.207  -6.139  -8.203  0.00  0.00    +0.000 C 
ATOM      5  H   UNL     1      -6.976  -5.400  -7.949  0.00  0.00    +0.000 HD
ATOM      6  H   UNL     1      -5.258  -5.772  -7.795  0.00  0.00    +0.000 HD
BRANCH   4   7
ATOM      7  C   UNL     1      -6.553  -7.486  -7.565  0.00  0.00    +0.000 C 
ATOM      8  H   UNL     1      -7.396  -7.941  -8.100  0.00  0.00    +0.000 HD
ATOM      9  H   UNL     1      -5.701  -8.171  -7.660  0.00  0.00    +0.000 HD
BRANCH   7  10
ATOM     10  C   UNL     1      -6.912  -7.324  -6.085  0.00  0.00    +0.000 C 
ATOM     11  H   UNL     1      -6.201  -6.649  -5.594  0.00  0.00    +0.000 HD
ATOM     12  H   UNL     1      -7.895  -6.844  -5.990  0.00  0.00    +0.000 HD
BRANCH  10  13
ATOM     13  C   UNL     1      -6.931  -8.657  -5.347  0.00  0.00    +0.000 C 
ATOM     14  H   UNL     1      -7.784  -8.722  -4.664  0.00  0.00    +0.000 HD
ATOM     15  H   UNL     1      -6.994  -9.491  -6.054  0.00  0.00    +0.000 HD
BRANCH  13  16
ATOM     16  O   UNL     1      -5.738  -8.810  -4.592  0.00  0.00    +0.000 OA
ATOM     17  H   UNL     1      -5.941  -8.571  -3.672  0.00  0.00    +0.000 HD
ENDBRANCH  13  16
ENDBRANCH  10  13
ENDBRANCH   7  10
ENDBRANCH   4   7
ENDBRANCH   1   4
BRANCH   1  18
ATOM     18  C   UNL     1      -4.897  -7.095 -10.185  0.00  0.00    +0.000 C 
ATOM     19  H   UNL     1      -5.096  -8.150  -9.955  0.00  0.00    +0.000 HD
ATOM     20  H   UNL     1      -4.828  -7.027 -11.279  0.00  0.00    +0.000 HD
BRANCH  18  21
ATOM     21  C   UNL     1      -3.542  -6.711  -9.587  0.00  0.00    +0.000 C 
ATOM     22  H   UNL     1      -3.704  -6.028  -8.742  0.00  0.00    +0.000 HD
ATOM     23  H   UNL     1      -2.972  -6.151 -10.340  0.00  0.00    +0.000 HD
BRANCH  21  24
ATOM     24  C   UNL     1      -2.719  -7.911  -9.121  0.00  0.00    +0.000 C 
ATOM     25  H   UNL     1      -1.842  -8.033  -9.767  0.00  0.00    +0.000 HD
ATOM     26  H   UNL     1      -2.351  -7.737  -8.103  0.00  0.00    +0.000 HD
BRANCH  24  27
ATOM     27  C   UNL     1      -3.543  -9.189  -9.139  0.00  0.00    +0.000 C 
ATOM     28  H   UNL     1      -3.200  -9.874  -8.357  0.00  0.00    +0.000 HD
ATOM     29  H   UNL     1      -4.602  -8.976  -8.962  0.00  0.00    +0.000 HD
ATOM     30  H   UNL     1      -3.452  -9.701 -10.103  0.00  0.00    +0.000 HD
ENDBRANCH  24  27
ENDBRANCH  21  24
ENDBRANCH  18  21
ENDBRANCH   1  18
TORSDOF 9
ENDMDL
MODEL 8
REMARK VINA RESULT:    -4.092     18.095     20.798
REMARK INTER + INTRA:          -6.259
REMARK INTER:                  -5.848
REMARK INTRA:                  -0.412
REMARK UNBOUND:                -0.254
REMARK  Name = 8914
REMARK  9 active torsions:
REMARK  status: ('A' for Active; 'I' for Inactive)
REMARK    1  A    between atoms: O_1  and  C_9
REMARK    2  A    between atoms: C_2  and  C_3
REMARK    3  A    between atoms: C_2  and  C_4
REMARK    4  A    between atoms: C_3  and  C_5
REMARK    5  A    between atoms: C_4  and  C_6
REMARK    6  A    between atoms: C_5  and  C_7
REMARK    7  A    between atoms: C_6  and  C_8
REMARK    8  A    between atoms: C_7  and  C_9
REMARK    9  A    between atoms: C_8  and  C_10
REMARK                            x       y       z     vdW  Elec       q    Type
REMARK                         _______ _______ _______ _____ _____    ______ ____
ROOT
ATOM      1  C   UNL     1      11.449 -10.834  -3.354  0.00  0.00    +0.000 C 
ATOM      2  H   UNL     1      10.926 -10.328  -4.175  0.00  0.00    +0.000 HD
ATOM      3  H   UNL     1      11.328 -11.912  -3.519  0.00  0.00    +0.000 HD
ENDROOT
BRANCH   1   4
ATOM      4  C   UNL     1      10.798 -10.450  -2.024  0.00  0.00    +0.000 C 
ATOM      5  H   UNL     1      11.156 -11.121  -1.233  0.00  0.00    +0.000 HD
ATOM      6  H   UNL     1       9.713 -10.585  -2.096  0.00  0.00    +0.000 HD
BRANCH   4   7
ATOM      7  C   UNL     1      11.112  -8.999  -1.651  0.00  0.00    +0.000 C 
ATOM      8  H   UNL     1      11.993  -8.969  -0.999  0.00  0.00    +0.000 HD
ATOM      9  H   UNL     1      11.359  -8.430  -2.556  0.00  0.00    +0.000 HD
BRANCH   7  10
ATOM     10  C   UNL     1       9.926  -8.338  -0.942  0.00  0.00    +0.000 C 
ATOM     11  H   UNL     1      10.239  -7.947   0.034  0.00  0.00    +0.000 HD
ATOM     12  H   UNL     1       9.586  -7.468  -1.518  0.00  0.00    +0.000 HD
BRANCH  10  13
ATOM     13  C   UNL     1       8.762  -9.300  -0.749  0.00  0.00    +0.000 C 
ATOM     14  H   UNL     1       7.905  -9.020  -1.371  0.00  0.00    +0.000 HD
ATOM     15  H   UNL     1       9.054 -10.322  -1.010  0.00  0.00    +0.000 HD
BRANCH  13  16
ATOM     16  O   UNL     1       8.349  -9.295   0.611  0.00  0.00    +0.000 OA
ATOM     17  H   UNL     1       7.443  -9.644   0.643  0.00  0.00    +0.000 HD
ENDBRANCH  13  16
ENDBRANCH  10  13
ENDBRANCH   7  10
ENDBRANCH   4   7
ENDBRANCH   1   4
BRANCH   1  18
ATOM     18  C   UNL     1      12.940 -10.489  -3.427  0.00  0.00    +0.000 C 
ATOM     19  H   UNL     1      13.266 -10.127  -2.444  0.00  0.00    +0.000 HD
ATOM     20  H   UNL     1      13.501 -11.413  -3.617  0.00  0.00    +0.000 HD
BRANCH  18  21
ATOM     21  C   UNL     1      13.336  -9.454  -4.485  0.00  0.00    +0.000 C 
ATOM     22  H   UNL     1      14.125  -9.875  -5.120  0.00  0.00    +0.000 HD
ATOM     23  H   UNL     1      13.770  -8.583  -3.977  0.00  0.00    +0.000 HD
BRANCH  21  24
ATOM     24  C   UNL     1      12.168  -8.998  -5.358  0.00  0.00    +0.000 C 
ATOM     25  H   UNL     1      11.315  -9.674  -5.218  0.00  0.00    +0.000 HD
ATOM     26  H   UNL     1      11.843  -7.998  -5.051  0.00  0.00    +0.000 HD
BRANCH  24  27
ATOM     27  C   UNL     1      12.554  -8.966  -6.829  0.00  0.00    +0.000 C 
ATOM     28  H   UNL     1      13.410  -9.624  -7.010  0.00  0.00    +0.000 HD
ATOM     29  H   UNL     1      11.726  -9.305  -7.459  0.00  0.00    +0.000 HD
ATOM     30  H   UNL     1      12.831  -7.954  -7.140  0.00  0.00    +0.000 HD
ENDBRANCH  24  27
ENDBRANCH  21  24
ENDBRANCH  18  21
ENDBRANCH   1  18
TORSDOF 9
ENDMDL
MODEL 9
REMARK VINA RESULT:    -4.010      2.066      3.770
REMARK INTER + INTRA:          -6.139
REMARK INTER:                  -5.528
REMARK INTRA:                  -0.611
REMARK UNBOUND:                -0.254
REMARK  Name = 8914
REMARK  9 active torsions:
REMARK  status: ('A' for Active; 'I' for Inactive)
REMARK    1  A    between atoms: O_1  and  C_9
REMARK    2  A    between atoms: C_2  and  C_3
REMARK    3  A    between atoms: C_2  and  C_4
REMARK    4  A    between atoms: C_3  and  C_5
REMARK    5  A    between atoms: C_4  and  C_6
REMARK    6  A    between atoms: C_5  and  C_7
REMARK    7  A    between atoms: C_6  and  C_8
REMARK    8  A    between atoms: C_7  and  C_9
REMARK    9  A    between atoms: C_8  and  C_10
REMARK                            x       y       z     vdW  Elec       q    Type
REMARK                         _______ _______ _______ _____ _____    ______ ____
ROOT
ATOM      1  C   UNL     1       0.981  -4.263  15.362  0.00  0.00    +0.000 C 
ATOM      2  H   UNL     1       1.064  -4.725  14.370  0.00  0.00    +0.000 HD
ATOM      3  H   UNL     1       0.420  -3.330  15.231  0.00  0.00    +0.000 HD
ENDROOT
BRANCH   1   4
ATOM      4  C   UNL     1       2.381  -3.941  15.890  0.00  0.00    +0.000 C 
ATOM      5  H   UNL     1       2.436  -4.188  16.957  0.00  0.00    +0.000 HD
ATOM      6  H   UNL     1       2.567  -2.864  15.797  0.00  0.00    +0.000 HD
BRANCH   4   7
ATOM      7  C   UNL     1       3.455  -4.716  15.123  0.00  0.00    +0.000 C 
ATOM      8  H   UNL     1       3.132  -4.864  14.086  0.00  0.00    +0.000 HD
ATOM      9  H   UNL     1       4.383  -4.131  15.094  0.00  0.00    +0.000 HD
BRANCH   7  10
ATOM     10  C   UNL     1       3.730  -6.075  15.773  0.00  0.00    +0.000 C 
ATOM     11  H   UNL     1       4.763  -6.116  16.142  0.00  0.00    +0.000 HD
ATOM     12  H   UNL     1       3.092  -6.202  16.657  0.00  0.00    +0.000 HD
BRANCH  10  13
ATOM     13  C   UNL     1       3.494  -7.232  14.811  0.00  0.00    +0.000 C 
ATOM     14  H   UNL     1       4.440  -7.666  14.470  0.00  0.00    +0.000 HD
ATOM     15  H   UNL     1       2.908  -8.022  15.290  0.00  0.00    +0.000 HD
BRANCH  13  16
ATOM     16  O   UNL     1       2.773  -6.778  13.674  0.00  0.00    +0.000 OA
ATOM     17  H   UNL     1       2.561  -5.840  13.818  0.00  0.00    +0.000 HD
ENDBRANCH  13  16
ENDBRANCH  10  13
ENDBRANCH   7  10
ENDBRANCH   4   7
ENDBRANCH   1   4
BRANCH   1  18
ATOM     18  C   UNL     1       0.182  -5.196  16.278  0.00  0.00    +0.000 C 
ATOM     19  H   UNL     1       0.743  -5.338  17.211  0.00  0.00    +0.000 HD
ATOM     20  H   UNL     1      -0.753  -4.691  16.555  0.00  0.00    +0.000 HD
BRANCH  18  21
ATOM     21  C   UNL     1      -0.160  -6.571  15.699  0.00  0.00    +0.000 C 
ATOM     22  H   UNL     1       0.699  -6.942  15.126  0.00  0.00    +0.000 HD
ATOM     23  H   UNL     1      -0.988  -6.456  14.988  0.00  0.00    +0.000 HD
BRANCH  21  24
ATOM     24  C   UNL     1      -0.547  -7.600  16.761  0.00  0.00    +0.000 C 
ATOM     25  H   UNL     1      -1.617  -7.517  16.985  0.00  0.00    +0.000 HD
ATOM     26  H   UNL     1      -0.372  -8.612  16.379  0.00  0.00    +0.000 HD
BRANCH  24  27
ATOM     27  C   UNL     1       0.255  -7.406  18.039  0.00  0.00    +0.000 C 
ATOM     28  H   UNL     1      -0.380  -7.573  18.914  0.00  0.00    +0.000 HD
ATOM     29  H   UNL     1       1.092  -8.110  18.088  0.00  0.00    +0.000 HD
ATOM     30  H   UNL     1       0.657  -6.389  18.100  0.00  0.00    +0.000 HD
ENDBRANCH  24  27
ENDBRANCH  21  24
ENDBRANCH  18  21
ENDBRANCH   1  18
TORSDOF 9
ENDMDL
MODEL 10
REMARK VINA RESULT:    -4.001     18.080     20.868
REMARK INTER + INTRA:          -6.126
REMARK INTER:                  -5.872
REMARK INTRA:                  -0.254
REMARK UNBOUND:                -0.254
REMARK  Name = 8914
REMARK  9 active torsions:
REMARK  status: ('A' for Active; 'I' for Inactive)
REMARK    1  A    between atoms: O_1  and  C_9
REMARK    2  A    between atoms: C_2  and  C_3
REMARK    3  A    between atoms: C_2  and  C_4
REMARK    4  A    between atoms: C_3  and  C_5
REMARK    5  A    between atoms: C_4  and  C_6
REMARK    6  A    between atoms: C_5  and  C_7
REMARK    7  A    between atoms: C_6  and  C_8
REMARK    8  A    between atoms: C_7  and  C_9
REMARK    9  A    between atoms: C_8  and  C_10
REMARK                            x       y       z     vdW  Elec       q    Type
REMARK                         _______ _______ _______ _____ _____    ______ ____
ROOT
ATOM      1  C   UNL     1      11.393 -10.756  -3.145  0.00  0.00    +0.000 C 
ATOM      2  H   UNL     1      10.392 -10.679  -3.587  0.00  0.00    +0.000 HD
ATOM      3  H   UNL     1      11.350 -11.567  -2.407  0.00  0.00    +0.000 HD
ENDROOT
BRANCH   1   4
ATOM      4  C   UNL     1      11.738  -9.445  -2.436  0.00  0.00    +0.000 C 
ATOM      5  H   UNL     1      11.753  -8.627  -3.167  0.00  0.00    +0.000 HD
ATOM      6  H   UNL     1      12.745  -9.515  -2.008  0.00  0.00    +0.000 HD
BRANCH   4   7
ATOM      7  C   UNL     1      10.730  -9.131  -1.329  0.00  0.00    +0.000 C 
ATOM      8  H   UNL     1      11.265  -8.850  -0.413  0.00  0.00    +0.000 HD
ATOM      9  H   UNL     1      10.115  -8.271  -1.621  0.00  0.00    +0.000 HD
BRANCH   7  10
ATOM     10  C   UNL     1       9.823 -10.332  -1.045  0.00  0.00    +0.000 C 
ATOM     11  H   UNL     1       9.764 -10.979  -1.930  0.00  0.00    +0.000 HD
ATOM     12  H   UNL     1      10.260 -10.950  -0.251  0.00  0.00    +0.000 HD
BRANCH  10  13
ATOM     13  C   UNL     1       8.417  -9.909  -0.638  0.00  0.00    +0.000 C 
ATOM     14  H   UNL     1       7.925  -9.342  -1.435  0.00  0.00    +0.000 HD
ATOM     15  H   UNL     1       7.800 -10.783  -0.409  0.00  0.00    +0.000 HD
BRANCH  13  16
ATOM     16  O   UNL     1       8.474  -9.094   0.524  0.00  0.00    +0.000 OA
ATOM     17  H   UNL     1       7.769  -9.390   1.124  0.00  0.00    +0.000 HD
ENDBRANCH  13  16
ENDBRANCH  10  13
ENDBRANCH   7  10
ENDBRANCH   4   7
ENDBRANCH   1   4
BRANCH   1  18
ATOM     18  C   UNL     1      12.392 -11.139  -4.242  0.00  0.00    +0.000 C 
ATOM     19  H   UNL     1      11.838 -11.565  -5.088  0.00  0.00    +0.000 HD
ATOM     20  H   UNL     1      12.866 -10.222  -4.614  0.00  0.00    +0.000 HD
BRANCH  18  21
ATOM     21  C   UNL     1      13.492 -12.123  -3.832  0.00  0.00    +0.000 C 
ATOM     22  H   UNL     1      13.454 -12.998  -4.493  0.00  0.00    +0.000 HD
ATOM     23  H   UNL     1      13.278 -12.485  -2.817  0.00  0.00    +0.000 HD
BRANCH  21  24
ATOM     24  C   UNL     1      14.894 -11.518  -3.867  0.00  0.00    +0.000 C 
ATOM     25  H   UNL     1      15.094 -11.101  -4.861  0.00  0.00    +0.000 HD
ATOM     26  H   UNL     1      14.961 -10.692  -3.149  0.00  0.00    +0.000 HD
BRANCH  24  27
ATOM     27  C   UNL     1      15.955 -12.556  -3.530  0.00  0.00    +0.000 C 
ATOM     28  H   UNL     1      16.624 -12.704  -4.383  0.00  0.00    +0.000 HD
ATOM     29  H   UNL     1      16.559 -12.236  -2.676  0.00  0.00    +0.000 HD
ATOM     30  H   UNL     1      15.497 -13.520  -3.286  0.00  0.00    +0.000 HD
ENDBRANCH  24  27
ENDBRANCH  21  24
ENDBRANCH  18  21
ENDBRANCH   1  18
TORSDOF 9
ENDMDL
