MODEL 1
REMARK VINA RESULT:    -4.383      0.000      0.000
REMARK INTER + INTRA:          -6.304
REMARK INTER:                  -6.124
REMARK INTRA:                  -0.180
REMARK UNBOUND:                -0.384
REMARK  Name = 18827
REMARK  7 active torsions:
REMARK  status: ('A' for Active; 'I' for Inactive)
REMARK    1  A    between atoms: O_1  and  C_6
REMARK    2  A    between atoms: C_2  and  C_3
REMARK    3  A    between atoms: C_2  and  C_4
REMARK    4  A    between atoms: C_3  and  C_5
REMARK    5  A    between atoms: C_4  and  C_6
REMARK    6  A    between atoms: C_5  and  C_7
REMARK    7  A    between atoms: C_6  and  C_8
REMARK                            x       y       z     vdW  Elec       q    Type
REMARK                         _______ _______ _______ _____ _____    ______ ____
ROOT
ATOM      1  C   UNL     1      -0.391  -6.569  15.956  0.00  0.00    +0.000 C 
ATOM      2  H   UNL     1       0.001  -6.941  15.001  0.00  0.00    +0.000 HD
ATOM      3  H   UNL     1      -1.392  -6.165  15.760  0.00  0.00    +0.000 HD
ENDROOT
BRANCH   1   4
ATOM      4  C   UNL     1      -0.493  -7.728  16.951  0.00  0.00    +0.000 C 
ATOM      5  H   UNL     1      -0.358  -8.681  16.425  0.00  0.00    +0.000 HD
ATOM      6  H   UNL     1      -1.497  -7.743  17.392  0.00  0.00    +0.000 HD
BRANCH   4   7
ATOM      7  C   UNL     1       0.555  -7.605  18.058  0.00  0.00    +0.000 C 
ATOM      8  H   UNL     1       1.402  -8.267  17.844  0.00  0.00    +0.000 HD
ATOM      9  H   UNL     1       0.942  -6.580  18.091  0.00  0.00    +0.000 HD
BRANCH   7  10
ATOM     10  C   UNL     1      -0.027  -7.961  19.417  0.00  0.00    +0.000 C 
ATOM     11  H   UNL     1       0.764  -8.099  20.159  0.00  0.00    +0.000 HD
ATOM     12  H   UNL     1      -0.700  -7.174  19.773  0.00  0.00    +0.000 HD
ATOM     13  H   UNL     1      -0.598  -8.893  19.352  0.00  0.00    +0.000 HD
ENDBRANCH   7  10
ENDBRANCH   4   7
ENDBRANCH   1   4
BRANCH   1  14
ATOM     14  C   UNL     1       0.512  -5.455  16.493  0.00  0.00    +0.000 C 
ATOM     15  H   UNL     1       1.443  -5.912  16.854  0.00  0.00    +0.000 HD
ATOM     16  H   UNL     1       0.028  -4.986  17.359  0.00  0.00    +0.000 HD
BRANCH  14  17
ATOM     17  C   UNL     1       0.845  -4.373  15.456  0.00  0.00    +0.000 C 
ATOM     18  H   UNL     1       0.097  -3.575  15.531  0.00  0.00    +0.000 HD
BRANCH  17  19
ATOM     19  C   UNL     1       2.224  -3.792  15.633  0.00  0.00    +0.000 C 
ATOM     20  C   UNL     1       2.785  -2.828  14.891  0.00  0.00    +0.000 C 
ATOM     21  H   UNL     1       2.819  -4.212  16.441  0.00  0.00    +0.000 HD
ATOM     22  H   UNL     1       3.791  -2.486  15.102  0.00  0.00    +0.000 HD
ATOM     23  H   UNL     1       2.250  -2.370  14.067  0.00  0.00    +0.000 HD
ENDBRANCH  17  19
BRANCH  17  24
ATOM     24  O   UNL     1       0.706  -4.948  14.156  0.00  0.00    +0.000 OA
ATOM     25  H   UNL     1      -0.150  -4.660  13.797  0.00  0.00    +0.000 HD
ENDBRANCH  17  24
ENDBRANCH  14  17
ENDBRANCH   1  14
TORSDOF 7
ENDMDL
MODEL 2
REMARK VINA RESULT:    -4.321      1.418      2.082
REMARK INTER + INTRA:          -6.220
REMARK INTER:                  -6.025
REMARK INTRA:                  -0.195
REMARK UNBOUND:                -0.384
REMARK  Name = 18827
REMARK  7 active torsions:
REMARK  status: ('A' for Active; 'I' for Inactive)
REMARK    1  A    between atoms: O_1  and  C_6
REMARK    2  A    between atoms: C_2  and  C_3
REMARK    3  A    between atoms: C_2  and  C_4
REMARK    4  A    between atoms: C_3  and  C_5
REMARK    5  A    between atoms: C_4  and  C_6
REMARK    6  A    between atoms: C_5  and  C_7
REMARK    7  A    between atoms: C_6  and  C_8
REMARK                            x       y       z     vdW  Elec       q    Type
REMARK                         _______ _______ _______ _____ _____    ______ ____
ROOT
ATOM      1  C   UNL     1       0.537  -4.796  16.014  0.00  0.00    +0.000 C 
ATOM      2  H   UNL     1      -0.530  -4.547  15.970  0.00  0.00    +0.000 HD
ATOM      3  H   UNL     1       0.928  -4.380  16.951  0.00  0.00    +0.000 HD
ENDROOT
BRANCH   1   4
ATOM      4  C   UNL     1       0.707  -6.317  16.021  0.00  0.00    +0.000 C 
ATOM      5  H   UNL     1       1.608  -6.586  16.587  0.00  0.00    +0.000 HD
ATOM      6  H   UNL     1       0.855  -6.673  14.994  0.00  0.00    +0.000 HD
BRANCH   4   7
ATOM      7  C   UNL     1      -0.508  -7.010  16.638  0.00  0.00    +0.000 C 
ATOM      8  H   UNL     1      -1.348  -6.310  16.693  0.00  0.00    +0.000 HD
ATOM      9  H   UNL     1      -0.822  -7.846  16.002  0.00  0.00    +0.000 HD
BRANCH   7  10
ATOM     10  C   UNL     1      -0.201  -7.534  18.032  0.00  0.00    +0.000 C 
ATOM     11  H   UNL     1       0.642  -6.997  18.477  0.00  0.00    +0.000 HD
ATOM     12  H   UNL     1      -1.067  -7.423  18.692  0.00  0.00    +0.000 HD
ATOM     13  H   UNL     1       0.059  -8.598  17.988  0.00  0.00    +0.000 HD
ENDBRANCH   7  10
ENDBRANCH   4   7
ENDBRANCH   1   4
BRANCH   1  14
ATOM     14  C   UNL     1       1.272  -4.161  14.830  0.00  0.00    +0.000 C 
ATOM     15  H   UNL     1       0.551  -4.019  14.015  0.00  0.00    +0.000 HD
ATOM     16  H   UNL     1       2.036  -4.859  14.465  0.00  0.00    +0.000 HD
BRANCH  14  17
ATOM     17  C   UNL     1       1.936  -2.817  15.162  0.00  0.00    +0.000 C 
ATOM     18  H   UNL     1       1.722  -2.571  16.210  0.00  0.00    +0.000 HD
BRANCH  17  19
ATOM     19  C   UNL     1       3.426  -2.824  14.939  0.00  0.00    +0.000 C 
ATOM     20  C   UNL     1       4.226  -3.898  14.929  0.00  0.00    +0.000 C 
ATOM     21  H   UNL     1       3.890  -1.853  14.782  0.00  0.00    +0.000 HD
ATOM     22  H   UNL     1       5.291  -3.790  14.765  0.00  0.00    +0.000 HD
ATOM     23  H   UNL     1       3.830  -4.896  15.085  0.00  0.00    +0.000 HD
ENDBRANCH  17  19
BRANCH  17  24
ATOM     24  O   UNL     1       1.314  -1.807  14.366  0.00  0.00    +0.000 OA
ATOM     25  H   UNL     1       0.357  -1.849  14.532  0.00  0.00    +0.000 HD
ENDBRANCH  17  24
ENDBRANCH  14  17
ENDBRANCH   1  14
TORSDOF 7
ENDMDL
MODEL 3
REMARK VINA RESULT:    -3.858     17.115     18.152
REMARK INTER + INTRA:          -5.595
REMARK INTER:                  -5.406
REMARK INTRA:                  -0.189
REMARK UNBOUND:                -0.384
REMARK  Name = 18827
REMARK  7 active torsions:
REMARK  status: ('A' for Active; 'I' for Inactive)
REMARK    1  A    between atoms: O_1  and  C_6
REMARK    2  A    between atoms: C_2  and  C_3
REMARK    3  A    between atoms: C_2  and  C_4
REMARK    4  A    between atoms: C_3  and  C_5
REMARK    5  A    between atoms: C_4  and  C_6
REMARK    6  A    between atoms: C_5  and  C_7
REMARK    7  A    between atoms: C_6  and  C_8
REMARK                            x       y       z     vdW  Elec       q    Type
REMARK                         _______ _______ _______ _____ _____    ______ ____
ROOT
ATOM      1  C   UNL     1       6.093 -12.514  -0.479  0.00  0.00    +0.000 C 
ATOM      2  H   UNL     1       6.149 -11.426  -0.357  0.00  0.00    +0.000 HD
ATOM      3  H   UNL     1       5.547 -12.708  -1.410  0.00  0.00    +0.000 HD
ENDROOT
BRANCH   1   4
ATOM      4  C   UNL     1       7.508 -13.089  -0.587  0.00  0.00    +0.000 C 
ATOM      5  H   UNL     1       7.517 -13.914  -1.311  0.00  0.00    +0.000 HD
ATOM      6  H   UNL     1       7.809 -13.506   0.381  0.00  0.00    +0.000 HD
BRANCH   4   7
ATOM      7  C   UNL     1       8.511 -12.020  -1.023  0.00  0.00    +0.000 C 
ATOM      8  H   UNL     1       9.509 -12.269  -0.645  0.00  0.00    +0.000 HD
ATOM      9  H   UNL     1       8.574 -11.994  -2.117  0.00  0.00    +0.000 HD
BRANCH   7  10
ATOM     10  C   UNL     1       8.112 -10.643  -0.516  0.00  0.00    +0.000 C 
ATOM     11  H   UNL     1       7.889  -9.967  -1.346  0.00  0.00    +0.000 HD
ATOM     12  H   UNL     1       7.228 -10.703   0.127  0.00  0.00    +0.000 HD
ATOM     13  H   UNL     1       8.928 -10.205   0.069  0.00  0.00    +0.000 HD
ENDBRANCH   7  10
ENDBRANCH   4   7
ENDBRANCH   1   4
BRANCH   1  14
ATOM     14  C   UNL     1       5.332 -13.134   0.696  0.00  0.00    +0.000 C 
ATOM     15  H   UNL     1       5.952 -13.935   1.123  0.00  0.00    +0.000 HD
ATOM     16  H   UNL     1       4.413 -13.604   0.323  0.00  0.00    +0.000 HD
BRANCH  14  17
ATOM     17  C   UNL     1       4.971 -12.130   1.800  0.00  0.00    +0.000 C 
ATOM     18  H   UNL     1       5.081 -11.114   1.398  0.00  0.00    +0.000 HD
BRANCH  17  19
ATOM     19  C   UNL     1       3.573 -12.314   2.331  0.00  0.00    +0.000 C 
ATOM     20  C   UNL     1       3.173 -13.229   3.224  0.00  0.00    +0.000 C 
ATOM     21  H   UNL     1       2.819 -11.639   1.934  0.00  0.00    +0.000 HD
ATOM     22  H   UNL     1       2.136 -13.279   3.534  0.00  0.00    +0.000 HD
ATOM     23  H   UNL     1       3.872 -13.937   3.656  0.00  0.00    +0.000 HD
ENDBRANCH  17  19
BRANCH  17  24
ATOM     24  O   UNL     1       5.929 -12.262   2.851  0.00  0.00    +0.000 OA
ATOM     25  H   UNL     1       5.951 -13.197   3.115  0.00  0.00    +0.000 HD
ENDBRANCH  17  24
ENDBRANCH  14  17
ENDBRANCH   1  14
TORSDOF 7
ENDMDL
MODEL 4
REMARK VINA RESULT:    -3.855      1.772      2.142
REMARK INTER + INTRA:          -5.590
REMARK INTER:                  -5.354
REMARK INTRA:                  -0.237
REMARK UNBOUND:                -0.384
REMARK  Name = 18827
REMARK  7 active torsions:
REMARK  status: ('A' for Active; 'I' for Inactive)
REMARK    1  A    between atoms: O_1  and  C_6
REMARK    2  A    between atoms: C_2  and  C_3
REMARK    3  A    between atoms: C_2  and  C_4
REMARK    4  A    between atoms: C_3  and  C_5
REMARK    5  A    between atoms: C_4  and  C_6
REMARK    6  A    between atoms: C_5  and  C_7
REMARK    7  A    between atoms: C_6  and  C_8
REMARK                            x       y       z     vdW  Elec       q    Type
REMARK                         _______ _______ _______ _____ _____    ______ ____
ROOT
ATOM      1  C   UNL     1      -0.015  -5.989  16.197  0.00  0.00    +0.000 C 
ATOM      2  H   UNL     1      -0.067  -6.640  15.316  0.00  0.00    +0.000 HD
ATOM      3  H   UNL     1      -1.045  -5.808  16.528  0.00  0.00    +0.000 HD
ENDROOT
BRANCH   1   4
ATOM      4  C   UNL     1       0.761  -6.697  17.310  0.00  0.00    +0.000 C 
ATOM      5  H   UNL     1       1.190  -5.952  17.993  0.00  0.00    +0.000 HD
ATOM      6  H   UNL     1       1.599  -7.254  16.874  0.00  0.00    +0.000 HD
BRANCH   4   7
ATOM      7  C   UNL     1      -0.139  -7.650  18.097  0.00  0.00    +0.000 C 
ATOM      8  H   UNL     1       0.252  -7.777  19.113  0.00  0.00    +0.000 HD
ATOM      9  H   UNL     1      -1.145  -7.223  18.186  0.00  0.00    +0.000 HD
BRANCH   7  10
ATOM     10  C   UNL     1      -0.233  -9.009  17.423  0.00  0.00    +0.000 C 
ATOM     11  H   UNL     1      -1.043  -9.606  17.853  0.00  0.00    +0.000 HD
ATOM     12  H   UNL     1      -0.416  -8.903  16.349  0.00  0.00    +0.000 HD
ATOM     13  H   UNL     1       0.703  -9.563  17.555  0.00  0.00    +0.000 HD
ENDBRANCH   7  10
ENDBRANCH   4   7
ENDBRANCH   1   4
BRANCH   1  14
ATOM     14  C   UNL     1       0.641  -4.656  15.825  0.00  0.00    +0.000 C 
ATOM     15  H   UNL     1       0.893  -4.126  16.753  0.00  0.00    +0.000 HD
ATOM     16  H   UNL     1      -0.086  -4.034  15.288  0.00  0.00    +0.000 HD
BRANCH  14  17
ATOM     17  C   UNL     1       1.905  -4.806  14.967  0.00  0.00    +0.000 C 
ATOM     18  H   UNL     1       2.764  -4.958  15.634  0.00  0.00    +0.000 HD
BRANCH  17  19
ATOM     19  C   UNL     1       1.820  -5.947  13.986  0.00  0.00    +0.000 C 
ATOM     20  C   UNL     1       2.662  -6.985  13.894  0.00  0.00    +0.000 C 
ATOM     21  H   UNL     1       0.994  -5.908  13.279  0.00  0.00    +0.000 HD
ATOM     22  H   UNL     1       2.511  -7.751  13.143  0.00  0.00    +0.000 HD
ATOM     23  H   UNL     1       3.509  -7.083  14.563  0.00  0.00    +0.000 HD
ENDBRANCH  17  19
BRANCH  17  24
ATOM     24  O   UNL     1       2.127  -3.572  14.284  0.00  0.00    +0.000 OA
ATOM     25  H   UNL     1       2.751  -3.744  13.559  0.00  0.00    +0.000 HD
ENDBRANCH  17  24
ENDBRANCH  14  17
ENDBRANCH   1  14
TORSDOF 7
ENDMDL
MODEL 5
REMARK VINA RESULT:    -3.777     23.101     25.498
REMARK INTER + INTRA:          -5.486
REMARK INTER:                  -5.233
REMARK INTRA:                  -0.253
REMARK UNBOUND:                -0.384
REMARK  Name = 18827
REMARK  7 active torsions:
REMARK  status: ('A' for Active; 'I' for Inactive)
REMARK    1  A    between atoms: O_1  and  C_6
REMARK    2  A    between atoms: C_2  and  C_3
REMARK    3  A    between atoms: C_2  and  C_4
REMARK    4  A    between atoms: C_3  and  C_5
REMARK    5  A    between atoms: C_4  and  C_6
REMARK    6  A    between atoms: C_5  and  C_7
REMARK    7  A    between atoms: C_6  and  C_8
REMARK                            x       y       z     vdW  Elec       q    Type
REMARK                         _______ _______ _______ _____ _____    ______ ____
ROOT
ATOM      1  C   UNL     1       7.350  13.360  -0.132  0.00  0.00    +0.000 C 
ATOM      2  H   UNL     1       7.872  13.403   0.832  0.00  0.00    +0.000 HD
ATOM      3  H   UNL     1       6.733  14.264  -0.208  0.00  0.00    +0.000 HD
ENDROOT
BRANCH   1   4
ATOM      4  C   UNL     1       8.376  13.346  -1.268  0.00  0.00    +0.000 C 
ATOM      5  H   UNL     1       9.365  13.616  -0.876  0.00  0.00    +0.000 HD
ATOM      6  H   UNL     1       8.107  14.104  -2.014  0.00  0.00    +0.000 HD
BRANCH   4   7
ATOM      7  C   UNL     1       8.451  11.972  -1.933  0.00  0.00    +0.000 C 
ATOM      8  H   UNL     1       9.070  11.299  -1.329  0.00  0.00    +0.000 HD
ATOM      9  H   UNL     1       7.449  11.530  -1.989  0.00  0.00    +0.000 HD
BRANCH   7  10
ATOM     10  C   UNL     1       9.032  12.063  -3.335  0.00  0.00    +0.000 C 
ATOM     11  H   UNL     1      10.024  11.604  -3.380  0.00  0.00    +0.000 HD
ATOM     12  H   UNL     1       8.386  11.559  -4.061  0.00  0.00    +0.000 HD
ATOM     13  H   UNL     1       9.129  13.112  -3.637  0.00  0.00    +0.000 HD
ENDBRANCH   7  10
ENDBRANCH   4   7
ENDBRANCH   1   4
BRANCH   1  14
ATOM     14  C   UNL     1       6.449  12.123  -0.184  0.00  0.00    +0.000 C 
ATOM     15  H   UNL     1       7.073  11.254  -0.431  0.00  0.00    +0.000 HD
ATOM     16  H   UNL     1       5.724  12.240  -1.000  0.00  0.00    +0.000 HD
BRANCH  14  17
ATOM     17  C   UNL     1       5.694  11.851   1.125  0.00  0.00    +0.000 C 
ATOM     18  H   UNL     1       5.760  10.778   1.349  0.00  0.00    +0.000 HD
BRANCH  17  19
ATOM     19  C   UNL     1       6.229  12.644   2.290  0.00  0.00    +0.000 C 
ATOM     20  C   UNL     1       5.795  12.593   3.556  0.00  0.00    +0.000 C 
ATOM     21  H   UNL     1       7.042  13.331   2.066  0.00  0.00    +0.000 HD
ATOM     22  H   UNL     1       6.249  13.214   4.318  0.00  0.00    +0.000 HD
ATOM     23  H   UNL     1       4.985  11.934   3.847  0.00  0.00    +0.000 HD
ENDBRANCH  17  19
BRANCH  17  24
ATOM     24  O   UNL     1       4.313  12.144   0.910  0.00  0.00    +0.000 OA
ATOM     25  H   UNL     1       3.848  11.299   0.790  0.00  0.00    +0.000 HD
ENDBRANCH  17  24
ENDBRANCH  14  17
ENDBRANCH   1  14
TORSDOF 7
ENDMDL
MODEL 6
REMARK VINA RESULT:    -3.704     16.584     17.528
REMARK INTER + INTRA:          -5.387
REMARK INTER:                  -5.203
REMARK INTRA:                  -0.185
REMARK UNBOUND:                -0.384
REMARK  Name = 18827
REMARK  7 active torsions:
REMARK  status: ('A' for Active; 'I' for Inactive)
REMARK    1  A    between atoms: O_1  and  C_6
REMARK    2  A    between atoms: C_2  and  C_3
REMARK    3  A    between atoms: C_2  and  C_4
REMARK    4  A    between atoms: C_3  and  C_5
REMARK    5  A    between atoms: C_4  and  C_6
REMARK    6  A    between atoms: C_5  and  C_7
REMARK    7  A    between atoms: C_6  and  C_8
REMARK                            x       y       z     vdW  Elec       q    Type
REMARK                         _______ _______ _______ _____ _____    ______ ____
ROOT
ATOM      1  C   UNL     1      -0.287  10.557  12.326  0.00  0.00    +0.000 C 
ATOM      2  H   UNL     1      -0.114   9.874  13.166  0.00  0.00    +0.000 HD
ATOM      3  H   UNL     1      -0.587  11.523  12.749  0.00  0.00    +0.000 HD
ENDROOT
BRANCH   1   4
ATOM      4  C   UNL     1       1.011  10.728  11.532  0.00  0.00    +0.000 C 
ATOM      5  H   UNL     1       1.193  11.794  11.347  0.00  0.00    +0.000 HD
ATOM      6  H   UNL     1       0.908  10.244  10.553  0.00  0.00    +0.000 HD
BRANCH   4   7
ATOM      7  C   UNL     1       2.204  10.131  12.280  0.00  0.00    +0.000 C 
ATOM      8  H   UNL     1       2.388  10.698  13.200  0.00  0.00    +0.000 HD
ATOM      9  H   UNL     1       1.980   9.099  12.574  0.00  0.00    +0.000 HD
BRANCH   7  10
ATOM     10  C   UNL     1       3.460  10.142  11.424  0.00  0.00    +0.000 C 
ATOM     11  H   UNL     1       3.268   9.706  10.439  0.00  0.00    +0.000 HD
ATOM     12  H   UNL     1       3.829  11.163  11.282  0.00  0.00    +0.000 HD
ATOM     13  H   UNL     1       4.252   9.559  11.906  0.00  0.00    +0.000 HD
ENDBRANCH   7  10
ENDBRANCH   4   7
ENDBRANCH   1   4
BRANCH   1  14
ATOM     14  C   UNL     1      -1.412  10.019  11.438  0.00  0.00    +0.000 C 
ATOM     15  H   UNL     1      -1.444   8.926  11.547  0.00  0.00    +0.000 HD
ATOM     16  H   UNL     1      -1.174  10.229  10.387  0.00  0.00    +0.000 HD
BRANCH  14  17
ATOM     17  C   UNL     1      -2.794  10.603  11.767  0.00  0.00    +0.000 C 
ATOM     18  H   UNL     1      -2.699  11.245  12.652  0.00  0.00    +0.000 HD
BRANCH  17  19
ATOM     19  C   UNL     1      -3.386  11.394  10.629  0.00  0.00    +0.000 C 
ATOM     20  C   UNL     1      -2.949  12.572  10.165  0.00  0.00    +0.000 C 
ATOM     21  H   UNL     1      -4.262  10.961  10.152  0.00  0.00    +0.000 HD
ATOM     22  H   UNL     1      -3.455  13.061   9.341  0.00  0.00    +0.000 HD
ATOM     23  H   UNL     1      -2.084  13.062  10.598  0.00  0.00    +0.000 HD
ENDBRANCH  17  19
BRANCH  17  24
ATOM     24  O   UNL     1      -3.656   9.524  12.131  0.00  0.00    +0.000 OA
ATOM     25  H   UNL     1      -3.096   8.765  12.365  0.00  0.00    +0.000 HD
ENDBRANCH  17  24
ENDBRANCH  14  17
ENDBRANCH   1  14
TORSDOF 7
ENDMDL
MODEL 7
REMARK VINA RESULT:    -3.696     15.663     16.241
REMARK INTER + INTRA:          -5.376
REMARK INTER:                  -5.180
REMARK INTRA:                  -0.196
REMARK UNBOUND:                -0.384
REMARK  Name = 18827
REMARK  7 active torsions:
REMARK  status: ('A' for Active; 'I' for Inactive)
REMARK    1  A    between atoms: O_1  and  C_6
REMARK    2  A    between atoms: C_2  and  C_3
REMARK    3  A    between atoms: C_2  and  C_4
REMARK    4  A    between atoms: C_3  and  C_5
REMARK    5  A    between atoms: C_4  and  C_6
REMARK    6  A    between atoms: C_5  and  C_7
REMARK    7  A    between atoms: C_6  and  C_8
REMARK                            x       y       z     vdW  Elec       q    Type
REMARK                         _______ _______ _______ _____ _____    ______ ____
ROOT
ATOM      1  C   UNL     1       1.886 -14.422   2.857  0.00  0.00    +0.000 C 
ATOM      2  H   UNL     1       1.528 -13.842   1.998  0.00  0.00    +0.000 HD
ATOM      3  H   UNL     1       1.176 -14.259   3.677  0.00  0.00    +0.000 HD
ENDROOT
BRANCH   1   4
ATOM      4  C   UNL     1       1.915 -15.908   2.494  0.00  0.00    +0.000 C 
ATOM      5  H   UNL     1       2.662 -16.083   1.709  0.00  0.00    +0.000 HD
ATOM      6  H   UNL     1       0.942 -16.204   2.085  0.00  0.00    +0.000 HD
BRANCH   4   7
ATOM      7  C   UNL     1       2.247 -16.772   3.712  0.00  0.00    +0.000 C 
ATOM      8  H   UNL     1       3.312 -17.030   3.707  0.00  0.00    +0.000 HD
ATOM      9  H   UNL     1       2.053 -16.208   4.632  0.00  0.00    +0.000 HD
BRANCH   7  10
ATOM     10  C   UNL     1       1.423 -18.049   3.729  0.00  0.00    +0.000 C 
ATOM     11  H   UNL     1       2.039 -18.912   4.000  0.00  0.00    +0.000 HD
ATOM     12  H   UNL     1       0.600 -17.976   4.447  0.00  0.00    +0.000 HD
ATOM     13  H   UNL     1       0.993 -18.236   2.738  0.00  0.00    +0.000 HD
ENDBRANCH   7  10
ENDBRANCH   4   7
ENDBRANCH   1   4
BRANCH   1  14
ATOM     14  C   UNL     1       3.272 -13.927   3.280  0.00  0.00    +0.000 C 
ATOM     15  H   UNL     1       3.954 -14.788   3.295  0.00  0.00    +0.000 HD
ATOM     16  H   UNL     1       3.220 -13.541   4.306  0.00  0.00    +0.000 HD
BRANCH  14  17
ATOM     17  C   UNL     1       3.849 -12.839   2.362  0.00  0.00    +0.000 C 
ATOM     18  H   UNL     1       4.059 -13.285   1.381  0.00  0.00    +0.000 HD
BRANCH  17  19
ATOM     19  C   UNL     1       2.925 -11.660   2.193  0.00  0.00    +0.000 C 
ATOM     20  C   UNL     1       2.573 -11.081   1.038  0.00  0.00    +0.000 C 
ATOM     21  H   UNL     1       2.518 -11.238   3.110  0.00  0.00    +0.000 HD
ATOM     22  H   UNL     1       1.904 -10.230   1.031  0.00  0.00    +0.000 HD
ATOM     23  H   UNL     1       2.948 -11.447   0.088  0.00  0.00    +0.000 HD
ENDBRANCH  17  19
BRANCH  17  24
ATOM     24  O   UNL     1       5.103 -12.422   2.902  0.00  0.00    +0.000 OA
ATOM     25  H   UNL     1       4.924 -11.742   3.572  0.00  0.00    +0.000 HD
ENDBRANCH  17  24
ENDBRANCH  14  17
ENDBRANCH   1  14
TORSDOF 7
ENDMDL
MODEL 8
REMARK VINA RESULT:    -3.643     24.477     26.863
REMARK INTER + INTRA:          -5.304
REMARK INTER:                  -5.148
REMARK INTRA:                  -0.156
REMARK UNBOUND:                -0.384
REMARK  Name = 18827
REMARK  7 active torsions:
REMARK  status: ('A' for Active; 'I' for Inactive)
REMARK    1  A    between atoms: O_1  and  C_6
REMARK    2  A    between atoms: C_2  and  C_3
REMARK    3  A    between atoms: C_2  and  C_4
REMARK    4  A    between atoms: C_3  and  C_5
REMARK    5  A    between atoms: C_4  and  C_6
REMARK    6  A    between atoms: C_5  and  C_7
REMARK    7  A    between atoms: C_6  and  C_8
REMARK                            x       y       z     vdW  Elec       q    Type
REMARK                         _______ _______ _______ _____ _____    ______ ____
ROOT
ATOM      1  C   UNL     1       7.720  13.016  -0.876  0.00  0.00    +0.000 C 
ATOM      2  H   UNL     1       7.840  14.079  -1.116  0.00  0.00    +0.000 HD
ATOM      3  H   UNL     1       8.263  12.830   0.058  0.00  0.00    +0.000 HD
ENDROOT
BRANCH   1   4
ATOM      4  C   UNL     1       6.235  12.702  -0.675  0.00  0.00    +0.000 C 
ATOM      5  H   UNL     1       5.826  12.250  -1.587  0.00  0.00    +0.000 HD
ATOM      6  H   UNL     1       5.684  13.634  -0.502  0.00  0.00    +0.000 HD
BRANCH   4   7
ATOM      7  C   UNL     1       6.022  11.751   0.503  0.00  0.00    +0.000 C 
ATOM      8  H   UNL     1       5.017  11.317   0.454  0.00  0.00    +0.000 HD
ATOM      9  H   UNL     1       6.737  10.922   0.446  0.00  0.00    +0.000 HD
BRANCH   7  10
ATOM     10  C   UNL     1       6.195  12.466   1.834  0.00  0.00    +0.000 C 
ATOM     11  H   UNL     1       6.335  11.750   2.649  0.00  0.00    +0.000 HD
ATOM     12  H   UNL     1       7.061  13.135   1.810  0.00  0.00    +0.000 HD
ATOM     13  H   UNL     1       5.308  13.067   2.058  0.00  0.00    +0.000 HD
ENDBRANCH   7  10
ENDBRANCH   4   7
ENDBRANCH   1   4
BRANCH   1  14
ATOM     14  C   UNL     1       8.321  12.157  -1.993  0.00  0.00    +0.000 C 
ATOM     15  H   UNL     1       7.661  11.294  -2.155  0.00  0.00    +0.000 HD
ATOM     16  H   UNL     1       9.290  11.763  -1.662  0.00  0.00    +0.000 HD
BRANCH  14  17
ATOM     17  C   UNL     1       8.510  12.908  -3.319  0.00  0.00    +0.000 C 
ATOM     18  H   UNL     1       8.630  13.977  -3.100  0.00  0.00    +0.000 HD
BRANCH  17  19
ATOM     19  C   UNL     1       9.694  12.418  -4.111  0.00  0.00    +0.000 C 
ATOM     20  C   UNL     1      10.819  13.098  -4.367  0.00  0.00    +0.000 C 
ATOM     21  H   UNL     1       9.612  11.413  -4.520  0.00  0.00    +0.000 HD
ATOM     22  H   UNL     1      11.611  12.651  -4.956  0.00  0.00    +0.000 HD
ATOM     23  H   UNL     1      10.965  14.106  -3.995  0.00  0.00    +0.000 HD
ENDBRANCH  17  19
BRANCH  17  24
ATOM     24  O   UNL     1       7.308  12.776  -4.078  0.00  0.00    +0.000 OA
ATOM     25  H   UNL     1       6.571  12.683  -3.451  0.00  0.00    +0.000 HD
ENDBRANCH  17  24
ENDBRANCH  14  17
ENDBRANCH   1  14
TORSDOF 7
ENDMDL
MODEL 9
REMARK VINA RESULT:    -3.617     20.813     22.042
REMARK INTER + INTRA:          -5.269
REMARK INTER:                  -4.885
REMARK INTRA:                  -0.384
REMARK UNBOUND:                -0.384
REMARK  Name = 18827
REMARK  7 active torsions:
REMARK  status: ('A' for Active; 'I' for Inactive)
REMARK    1  A    between atoms: O_1  and  C_6
REMARK    2  A    between atoms: C_2  and  C_3
REMARK    3  A    between atoms: C_2  and  C_4
REMARK    4  A    between atoms: C_3  and  C_5
REMARK    5  A    between atoms: C_4  and  C_6
REMARK    6  A    between atoms: C_5  and  C_7
REMARK    7  A    between atoms: C_6  and  C_8
REMARK                            x       y       z     vdW  Elec       q    Type
REMARK                         _______ _______ _______ _____ _____    ______ ____
ROOT
ATOM      1  C   UNL     1     -19.820  -1.534   6.850  0.00  0.00    +0.000 C 
ATOM      2  H   UNL     1     -20.242  -0.571   6.540  0.00  0.00    +0.000 HD
ATOM      3  H   UNL     1     -20.419  -1.893   7.697  0.00  0.00    +0.000 HD
ENDROOT
BRANCH   1   4
ATOM      4  C   UNL     1     -19.922  -2.532   5.694  0.00  0.00    +0.000 C 
ATOM      5  H   UNL     1     -20.570  -2.122   4.908  0.00  0.00    +0.000 HD
ATOM      6  H   UNL     1     -20.392  -3.457   6.049  0.00  0.00    +0.000 HD
BRANCH   4   7
ATOM      7  C   UNL     1     -18.546  -2.845   5.106  0.00  0.00    +0.000 C 
ATOM      8  H   UNL     1     -18.420  -2.319   4.152  0.00  0.00    +0.000 HD
ATOM      9  H   UNL     1     -17.762  -2.485   5.782  0.00  0.00    +0.000 HD
BRANCH   7  10
ATOM     10  C   UNL     1     -18.363  -4.338   4.882  0.00  0.00    +0.000 C 
ATOM     11  H   UNL     1     -19.238  -4.897   5.226  0.00  0.00    +0.000 HD
ATOM     12  H   UNL     1     -18.208  -4.559   3.822  0.00  0.00    +0.000 HD
ATOM     13  H   UNL     1     -17.489  -4.699   5.436  0.00  0.00    +0.000 HD
ENDBRANCH   7  10
ENDBRANCH   4   7
ENDBRANCH   1   4
BRANCH   1  14
ATOM     14  C   UNL     1     -18.367  -1.350   7.297  0.00  0.00    +0.000 C 
ATOM     15  H   UNL     1     -18.147  -0.275   7.315  0.00  0.00    +0.000 HD
ATOM     16  H   UNL     1     -17.701  -1.801   6.550  0.00  0.00    +0.000 HD
BRANCH  14  17
ATOM     17  C   UNL     1     -18.061  -1.955   8.675  0.00  0.00    +0.000 C 
ATOM     18  H   UNL     1     -17.361  -1.292   9.199  0.00  0.00    +0.000 HD
BRANCH  17  19
ATOM     19  C   UNL     1     -19.294  -2.157   9.517  0.00  0.00    +0.000 C 
ATOM     20  C   UNL     1     -19.355  -2.155  10.855  0.00  0.00    +0.000 C 
ATOM     21  H   UNL     1     -20.220  -2.331   8.974  0.00  0.00    +0.000 HD
ATOM     22  H   UNL     1     -20.298  -2.317  11.363  0.00  0.00    +0.000 HD
ATOM     23  H   UNL     1     -18.469  -1.994  11.459  0.00  0.00    +0.000 HD
ENDBRANCH  17  19
BRANCH  17  24
ATOM     24  O   UNL     1     -17.382  -3.195   8.474  0.00  0.00    +0.000 OA
ATOM     25  H   UNL     1     -16.511  -2.995   8.091  0.00  0.00    +0.000 HD
ENDBRANCH  17  24
ENDBRANCH  14  17
ENDBRANCH   1  14
TORSDOF 7
ENDMDL
MODEL 10
REMARK VINA RESULT:    -3.560     25.635     26.489
REMARK INTER + INTRA:          -5.192
REMARK INTER:                  -4.690
REMARK INTRA:                  -0.502
REMARK UNBOUND:                -0.384
REMARK  Name = 18827
REMARK  7 active torsions:
REMARK  status: ('A' for Active; 'I' for Inactive)
REMARK    1  A    between atoms: O_1  and  C_6
REMARK    2  A    between atoms: C_2  and  C_3
REMARK    3  A    between atoms: C_2  and  C_4
REMARK    4  A    between atoms: C_3  and  C_5
REMARK    5  A    between atoms: C_4  and  C_6
REMARK    6  A    between atoms: C_5  and  C_7
REMARK    7  A    between atoms: C_6  and  C_8
REMARK                            x       y       z     vdW  Elec       q    Type
REMARK                         _______ _______ _______ _____ _____    ______ ____
ROOT
ATOM      1  C   UNL     1      -3.724  -9.745 -10.538  0.00  0.00    +0.000 C 
ATOM      2  H   UNL     1      -2.980 -10.358 -11.059  0.00  0.00    +0.000 HD
ATOM      3  H   UNL     1      -4.571  -9.611 -11.222  0.00  0.00    +0.000 HD
ENDROOT
BRANCH   1   4
ATOM      4  C   UNL     1      -4.196 -10.475  -9.278  0.00  0.00    +0.000 C 
ATOM      5  H   UNL     1      -3.777 -11.489  -9.259  0.00  0.00    +0.000 HD
ATOM      6  H   UNL     1      -5.288 -10.578  -9.302  0.00  0.00    +0.000 HD
BRANCH   4   7
ATOM      7  C   UNL     1      -3.776  -9.728  -8.011  0.00  0.00    +0.000 C 
ATOM      8  H   UNL     1      -2.876 -10.188  -7.589  0.00  0.00    +0.000 HD
ATOM      9  H   UNL     1      -3.526  -8.690  -8.258  0.00  0.00    +0.000 HD
BRANCH   7  10
ATOM     10  C   UNL     1      -4.881  -9.738  -6.967  0.00  0.00    +0.000 C 
ATOM     11  H   UNL     1      -4.616  -9.116  -6.108  0.00  0.00    +0.000 HD
ATOM     12  H   UNL     1      -5.821  -9.364  -7.387  0.00  0.00    +0.000 HD
ATOM     13  H   UNL     1      -5.053 -10.759  -6.608  0.00  0.00    +0.000 HD
ENDBRANCH   7  10
ENDBRANCH   4   7
ENDBRANCH   1   4
BRANCH   1  14
ATOM     14  C   UNL     1      -3.128  -8.377 -10.194  0.00  0.00    +0.000 C 
ATOM     15  H   UNL     1      -2.151  -8.294 -10.690  0.00  0.00    +0.000 HD
ATOM     16  H   UNL     1      -2.944  -8.325  -9.114  0.00  0.00    +0.000 HD
BRANCH  14  17
ATOM     17  C   UNL     1      -4.011  -7.193 -10.612  0.00  0.00    +0.000 C 
ATOM     18  H   UNL     1      -4.855  -7.577 -11.200  0.00  0.00    +0.000 HD
BRANCH  17  19
ATOM     19  C   UNL     1      -4.531  -6.402  -9.440  0.00  0.00    +0.000 C 
ATOM     20  C   UNL     1      -5.786  -6.402  -8.971  0.00  0.00    +0.000 C 
ATOM     21  H   UNL     1      -3.809  -5.762  -8.938  0.00  0.00    +0.000 HD
ATOM     22  H   UNL     1      -6.055  -5.788  -8.120  0.00  0.00    +0.000 HD
ATOM     23  H   UNL     1      -6.557  -7.012  -9.427  0.00  0.00    +0.000 HD
ENDBRANCH  17  19
BRANCH  17  24
ATOM     24  O   UNL     1      -3.250  -6.357 -11.484  0.00  0.00    +0.000 OA
ATOM     25  H   UNL     1      -2.751  -6.935 -12.086  0.00  0.00    +0.000 HD
ENDBRANCH  17  24
ENDBRANCH  14  17
ENDBRANCH   1  14
TORSDOF 7
ENDMDL
