MODEL 1
REMARK VINA RESULT:    -4.780      0.000      0.000
REMARK INTER + INTRA:          -7.273
REMARK INTER:                  -6.661
REMARK INTRA:                  -0.612
REMARK UNBOUND:                -0.258
REMARK  Name = 12741
REMARK  9 active torsions:
REMARK  status: ('A' for Active; 'I' for Inactive)
REMARK    1  A    between atoms: C_2  and  C_3
REMARK    2  A    between atoms: C_2  and  C_4
REMARK    3  A    between atoms: C_3  and  C_5
REMARK    4  A    between atoms: C_4  and  C_6
REMARK    5  A    between atoms: C_5  and  C_7
REMARK    6  A    between atoms: C_6  and  C_8
REMARK    7  A    between atoms: C_7  and  C_9
REMARK    8  A    between atoms: C_8  and  C_10
REMARK    9  A    between atoms: C_10  and  C_11
REMARK                            x       y       z     vdW  Elec       q    Type
REMARK                         _______ _______ _______ _____ _____    ______ ____
ROOT
ATOM      1  C   UNL     1       5.149  -3.045  -2.337  0.00  0.00    +0.000 C 
ATOM      2  H   UNL     1       4.599  -2.622  -3.187  0.00  0.00    +0.000 HD
ATOM      3  H   UNL     1       4.846  -4.095  -2.246  0.00  0.00    +0.000 HD
ENDROOT
BRANCH   1   4
ATOM      4  C   UNL     1       4.779  -2.292  -1.059  0.00  0.00    +0.000 C 
ATOM      5  H   UNL     1       4.504  -1.260  -1.305  0.00  0.00    +0.000 HD
ATOM      6  H   UNL     1       5.651  -2.245  -0.396  0.00  0.00    +0.000 HD
BRANCH   4   7
ATOM      7  C   UNL     1       3.619  -2.973  -0.328  0.00  0.00    +0.000 C 
ATOM      8  H   UNL     1       2.985  -2.213   0.144  0.00  0.00    +0.000 HD
ATOM      9  H   UNL     1       2.995  -3.510  -1.052  0.00  0.00    +0.000 HD
BRANCH   7  10
ATOM     10  C   UNL     1       4.128  -3.951   0.731  0.00  0.00    +0.000 C 
ATOM     11  H   UNL     1       3.300  -4.264   1.377  0.00  0.00    +0.000 HD
ATOM     12  H   UNL     1       4.522  -4.852   0.248  0.00  0.00    +0.000 HD
BRANCH  10  13
ATOM     13  C   UNL     1       5.216  -3.325   1.589  0.00  0.00    +0.000 C 
ATOM     14  H   UNL     1       6.193  -3.406   1.102  0.00  0.00    +0.000 HD
ATOM     15  H   UNL     1       5.275  -3.834   2.556  0.00  0.00    +0.000 HD
ATOM     16  H   UNL     1       5.010  -2.265   1.774  0.00  0.00    +0.000 HD
ENDBRANCH  10  13
ENDBRANCH   7  10
ENDBRANCH   4   7
ENDBRANCH   1   4
BRANCH   1  17
ATOM     17  C   UNL     1       6.653  -2.970  -2.611  0.00  0.00    +0.000 C 
ATOM     18  H   UNL     1       6.843  -2.269  -3.432  0.00  0.00    +0.000 HD
ATOM     19  H   UNL     1       7.014  -3.954  -2.936  0.00  0.00    +0.000 HD
BRANCH  17  20
ATOM     20  C   UNL     1       7.423  -2.522  -1.369  0.00  0.00    +0.000 C 
ATOM     21  H   UNL     1       7.496  -1.428  -1.352  0.00  0.00    +0.000 HD
ATOM     22  H   UNL     1       6.870  -2.815  -0.467  0.00  0.00    +0.000 HD
BRANCH  20  23
ATOM     23  C   UNL     1       8.822  -3.132  -1.332  0.00  0.00    +0.000 C 
ATOM     24  H   UNL     1       8.771  -4.199  -1.580  0.00  0.00    +0.000 HD
ATOM     25  H   UNL     1       9.249  -3.027  -0.329  0.00  0.00    +0.000 HD
BRANCH  23  27
ATOM     26  O   UNL     1       9.918  -1.250  -2.382  0.00  0.00    +0.000 OA
ATOM     27  C   UNL     1       9.773  -2.469  -2.314  0.00  0.00    +0.000 C 
BRANCH  27  28
ATOM     28  C   UNL     1      10.544  -3.395  -3.218  0.00  0.00    +0.000 C 
ATOM     29  H   UNL     1      10.754  -2.892  -4.164  0.00  0.00    +0.000 HD
ATOM     30  H   UNL     1      11.477  -3.688  -2.731  0.00  0.00    +0.000 HD
ATOM     31  H   UNL     1       9.952  -4.292  -3.419  0.00  0.00    +0.000 HD
ENDBRANCH  27  28
ENDBRANCH  23  27
ENDBRANCH  20  23
ENDBRANCH  17  20
ENDBRANCH   1  17
TORSDOF 9
ENDMDL
MODEL 2
REMARK VINA RESULT:    -4.500      2.543      5.727
REMARK INTER + INTRA:          -6.862
REMARK INTER:                  -6.451
REMARK INTRA:                  -0.412
REMARK UNBOUND:                -0.258
REMARK  Name = 12741
REMARK  9 active torsions:
REMARK  status: ('A' for Active; 'I' for Inactive)
REMARK    1  A    between atoms: C_2  and  C_3
REMARK    2  A    between atoms: C_2  and  C_4
REMARK    3  A    between atoms: C_3  and  C_5
REMARK    4  A    between atoms: C_4  and  C_6
REMARK    5  A    between atoms: C_5  and  C_7
REMARK    6  A    between atoms: C_6  and  C_8
REMARK    7  A    between atoms: C_7  and  C_9
REMARK    8  A    between atoms: C_8  and  C_10
REMARK    9  A    between atoms: C_10  and  C_11
REMARK                            x       y       z     vdW  Elec       q    Type
REMARK                         _______ _______ _______ _____ _____    ______ ____
ROOT
ATOM      1  C   UNL     1       8.746  -1.854   0.639  0.00  0.00    +0.000 C 
ATOM      2  H   UNL     1       8.333  -0.891   0.963  0.00  0.00    +0.000 HD
ATOM      3  H   UNL     1       9.401  -2.211   1.443  0.00  0.00    +0.000 HD
ENDROOT
BRANCH   1   4
ATOM      4  C   UNL     1       9.563  -1.659  -0.639  0.00  0.00    +0.000 C 
ATOM      5  H   UNL     1      10.489  -1.120  -0.406  0.00  0.00    +0.000 HD
ATOM      6  H   UNL     1       8.997  -1.041  -1.345  0.00  0.00    +0.000 HD
BRANCH   4   7
ATOM      7  C   UNL     1       9.900  -3.001  -1.293  0.00  0.00    +0.000 C 
ATOM      8  H   UNL     1      10.964  -3.226  -1.144  0.00  0.00    +0.000 HD
ATOM      9  H   UNL     1       9.330  -3.800  -0.805  0.00  0.00    +0.000 HD
BRANCH   7  10
ATOM     10  C   UNL     1       9.582  -2.985  -2.788  0.00  0.00    +0.000 C 
ATOM     11  H   UNL     1       8.608  -3.455  -2.966  0.00  0.00    +0.000 HD
ATOM     12  H   UNL     1       9.513  -1.950  -3.143  0.00  0.00    +0.000 HD
BRANCH  10  13
ATOM     13  C   UNL     1      10.642  -3.721  -3.591  0.00  0.00    +0.000 C 
ATOM     14  H   UNL     1      10.774  -4.743  -3.220  0.00  0.00    +0.000 HD
ATOM     15  H   UNL     1      11.604  -3.205  -3.512  0.00  0.00    +0.000 HD
ATOM     16  H   UNL     1      10.368  -3.773  -4.650  0.00  0.00    +0.000 HD
ENDBRANCH  10  13
ENDBRANCH   7  10
ENDBRANCH   4   7
ENDBRANCH   1   4
BRANCH   1  17
ATOM     17  C   UNL     1       7.609  -2.855   0.425  0.00  0.00    +0.000 C 
ATOM     18  H   UNL     1       7.181  -3.139   1.394  0.00  0.00    +0.000 HD
ATOM     19  H   UNL     1       8.008  -3.769  -0.031  0.00  0.00    +0.000 HD
BRANCH  17  20
ATOM     20  C   UNL     1       6.512  -2.271  -0.465  0.00  0.00    +0.000 C 
ATOM     21  H   UNL     1       6.005  -1.452   0.060  0.00  0.00    +0.000 HD
ATOM     22  H   UNL     1       6.963  -1.835  -1.366  0.00  0.00    +0.000 HD
BRANCH  20  23
ATOM     23  C   UNL     1       5.495  -3.335  -0.865  0.00  0.00    +0.000 C 
ATOM     24  H   UNL     1       5.889  -4.333  -0.639  0.00  0.00    +0.000 HD
ATOM     25  H   UNL     1       5.294  -3.275  -1.940  0.00  0.00    +0.000 HD
BRANCH  23  27
ATOM     26  O   UNL     1       3.965  -3.648   0.981  0.00  0.00    +0.000 OA
ATOM     27  C   UNL     1       4.171  -3.180  -0.136  0.00  0.00    +0.000 C 
BRANCH  27  28
ATOM     28  C   UNL     1       3.100  -2.409  -0.864  0.00  0.00    +0.000 C 
ATOM     29  H   UNL     1       3.408  -2.243  -1.899  0.00  0.00    +0.000 HD
ATOM     30  H   UNL     1       2.162  -2.968  -0.834  0.00  0.00    +0.000 HD
ATOM     31  H   UNL     1       2.950  -1.439  -0.380  0.00  0.00    +0.000 HD
ENDBRANCH  27  28
ENDBRANCH  23  27
ENDBRANCH  20  23
ENDBRANCH  17  20
ENDBRANCH   1  17
TORSDOF 9
ENDMDL
MODEL 3
REMARK VINA RESULT:    -4.458      7.644      9.787
REMARK INTER + INTRA:          -6.800
REMARK INTER:                  -6.091
REMARK INTRA:                  -0.709
REMARK UNBOUND:                -0.258
REMARK  Name = 12741
REMARK  9 active torsions:
REMARK  status: ('A' for Active; 'I' for Inactive)
REMARK    1  A    between atoms: C_2  and  C_3
REMARK    2  A    between atoms: C_2  and  C_4
REMARK    3  A    between atoms: C_3  and  C_5
REMARK    4  A    between atoms: C_4  and  C_6
REMARK    5  A    between atoms: C_5  and  C_7
REMARK    6  A    between atoms: C_6  and  C_8
REMARK    7  A    between atoms: C_7  and  C_9
REMARK    8  A    between atoms: C_8  and  C_10
REMARK    9  A    between atoms: C_10  and  C_11
REMARK                            x       y       z     vdW  Elec       q    Type
REMARK                         _______ _______ _______ _____ _____    ______ ____
ROOT
ATOM      1  C   UNL     1      12.757  -9.925  -2.885  0.00  0.00    +0.000 C 
ATOM      2  H   UNL     1      13.595  -9.224  -2.787  0.00  0.00    +0.000 HD
ATOM      3  H   UNL     1      12.825 -10.631  -2.049  0.00  0.00    +0.000 HD
ENDROOT
BRANCH   1   4
ATOM      4  C   UNL     1      12.874 -10.684  -4.207  0.00  0.00    +0.000 C 
ATOM      5  H   UNL     1      13.592 -11.505  -4.099  0.00  0.00    +0.000 HD
ATOM      6  H   UNL     1      13.265 -10.013  -4.982  0.00  0.00    +0.000 HD
BRANCH   4   7
ATOM      7  C   UNL     1      11.519 -11.240  -4.651  0.00  0.00    +0.000 C 
ATOM      8  H   UNL     1      10.717 -10.584  -4.292  0.00  0.00    +0.000 HD
ATOM      9  H   UNL     1      11.466 -11.245  -5.746  0.00  0.00    +0.000 HD
BRANCH   7  10
ATOM     10  C   UNL     1      11.300 -12.657  -4.123  0.00  0.00    +0.000 C 
ATOM     11  H   UNL     1      11.446 -13.383  -4.931  0.00  0.00    +0.000 HD
ATOM     12  H   UNL     1      12.040 -12.883  -3.346  0.00  0.00    +0.000 HD
BRANCH  10  13
ATOM     13  C   UNL     1       9.903 -12.828  -3.549  0.00  0.00    +0.000 C 
ATOM     14  H   UNL     1       9.516 -11.876  -3.171  0.00  0.00    +0.000 HD
ATOM     15  H   UNL     1       9.918 -13.542  -2.720  0.00  0.00    +0.000 HD
ATOM     16  H   UNL     1       9.209 -13.203  -4.309  0.00  0.00    +0.000 HD
ENDBRANCH  10  13
ENDBRANCH   7  10
ENDBRANCH   4   7
ENDBRANCH   1   4
BRANCH   1  17
ATOM     17  C   UNL     1      11.435  -9.159  -2.799  0.00  0.00    +0.000 C 
ATOM     18  H   UNL     1      10.675  -9.666  -3.405  0.00  0.00    +0.000 HD
ATOM     19  H   UNL     1      11.566  -8.154  -3.220  0.00  0.00    +0.000 HD
BRANCH  17  20
ATOM     20  C   UNL     1      10.947  -9.052  -1.354  0.00  0.00    +0.000 C 
ATOM     21  H   UNL     1      11.806  -8.971  -0.677  0.00  0.00    +0.000 HD
ATOM     22  H   UNL     1      10.361  -8.132  -1.230  0.00  0.00    +0.000 HD
BRANCH  20  23
ATOM     23  C   UNL     1      10.095 -10.258  -0.965  0.00  0.00    +0.000 C 
ATOM     24  H   UNL     1      10.506 -10.731  -0.065  0.00  0.00    +0.000 HD
ATOM     25  H   UNL     1      10.096 -10.992  -1.777  0.00  0.00    +0.000 HD
BRANCH  23  27
ATOM     26  O   UNL     1       8.268  -8.718  -0.595  0.00  0.00    +0.000 OA
ATOM     27  C   UNL     1       8.651  -9.884  -0.678  0.00  0.00    +0.000 C 
BRANCH  27  28
ATOM     28  C   UNL     1       7.692 -11.032  -0.498  0.00  0.00    +0.000 C 
ATOM     29  H   UNL     1       6.938 -10.765   0.245  0.00  0.00    +0.000 HD
ATOM     30  H   UNL     1       7.216 -11.264  -1.454  0.00  0.00    +0.000 HD
ATOM     31  H   UNL     1       8.236 -11.915  -0.149  0.00  0.00    +0.000 HD
ENDBRANCH  27  28
ENDBRANCH  23  27
ENDBRANCH  20  23
ENDBRANCH  17  20
ENDBRANCH   1  17
TORSDOF 9
ENDMDL
MODEL 4
REMARK VINA RESULT:    -4.433     14.068     15.359
REMARK INTER + INTRA:          -6.764
REMARK INTER:                  -6.013
REMARK INTRA:                  -0.751
REMARK UNBOUND:                -0.258
REMARK  Name = 12741
REMARK  9 active torsions:
REMARK  status: ('A' for Active; 'I' for Inactive)
REMARK    1  A    between atoms: C_2  and  C_3
REMARK    2  A    between atoms: C_2  and  C_4
REMARK    3  A    between atoms: C_3  and  C_5
REMARK    4  A    between atoms: C_4  and  C_6
REMARK    5  A    between atoms: C_5  and  C_7
REMARK    6  A    between atoms: C_6  and  C_8
REMARK    7  A    between atoms: C_7  and  C_9
REMARK    8  A    between atoms: C_8  and  C_10
REMARK    9  A    between atoms: C_10  and  C_11
REMARK                            x       y       z     vdW  Elec       q    Type
REMARK                         _______ _______ _______ _____ _____    ______ ____
ROOT
ATOM      1  C   UNL     1      -3.537  -9.151 -10.060  0.00  0.00    +0.000 C 
ATOM      2  H   UNL     1      -2.849  -9.621 -10.773  0.00  0.00    +0.000 HD
ATOM      3  H   UNL     1      -4.356  -8.712 -10.642  0.00  0.00    +0.000 HD
ENDROOT
BRANCH   1   4
ATOM      4  C   UNL     1      -2.806  -8.049  -9.291  0.00  0.00    +0.000 C 
ATOM      5  H   UNL     1      -1.731  -8.111  -9.492  0.00  0.00    +0.000 HD
ATOM      6  H   UNL     1      -2.944  -8.201  -8.214  0.00  0.00    +0.000 HD
BRANCH   4   7
ATOM      7  C   UNL     1      -3.324  -6.663  -9.680  0.00  0.00    +0.000 C 
ATOM      8  H   UNL     1      -3.120  -5.953  -8.869  0.00  0.00    +0.000 HD
ATOM      9  H   UNL     1      -2.785  -6.306 -10.565  0.00  0.00    +0.000 HD
BRANCH   7  10
ATOM     10  C   UNL     1      -4.824  -6.692  -9.972  0.00  0.00    +0.000 C 
ATOM     11  H   UNL     1      -5.048  -6.052 -10.834  0.00  0.00    +0.000 HD
ATOM     12  H   UNL     1      -5.132  -7.710 -10.236  0.00  0.00    +0.000 HD
BRANCH  10  13
ATOM     13  C   UNL     1      -5.634  -6.216  -8.777  0.00  0.00    +0.000 C 
ATOM     14  H   UNL     1      -6.263  -5.361  -9.046  0.00  0.00    +0.000 HD
ATOM     15  H   UNL     1      -4.967  -5.905  -7.967  0.00  0.00    +0.000 HD
ATOM     16  H   UNL     1      -6.281  -7.014  -8.398  0.00  0.00    +0.000 HD
ENDBRANCH  10  13
ENDBRANCH   7  10
ENDBRANCH   4   7
ENDBRANCH   1   4
BRANCH   1  17
ATOM     17  C   UNL     1      -4.098 -10.213  -9.111  0.00  0.00    +0.000 C 
ATOM     18  H   UNL     1      -3.609 -11.175  -9.305  0.00  0.00    +0.000 HD
ATOM     19  H   UNL     1      -5.169 -10.349  -9.307  0.00  0.00    +0.000 HD
BRANCH  17  20
ATOM     20  C   UNL     1      -3.888  -9.820  -7.648  0.00  0.00    +0.000 C 
ATOM     21  H   UNL     1      -2.889 -10.132  -7.320  0.00  0.00    +0.000 HD
ATOM     22  H   UNL     1      -3.923  -8.727  -7.553  0.00  0.00    +0.000 HD
BRANCH  20  23
ATOM     23  C   UNL     1      -4.947 -10.448  -6.747  0.00  0.00    +0.000 C 
ATOM     24  H   UNL     1      -4.465 -10.980  -5.918  0.00  0.00    +0.000 HD
ATOM     25  H   UNL     1      -5.547 -11.163  -7.319  0.00  0.00    +0.000 HD
BRANCH  23  27
ATOM     26  O   UNL     1      -5.688  -8.867  -5.074  0.00  0.00    +0.000 OA
ATOM     27  C   UNL     1      -5.893  -9.418  -6.154  0.00  0.00    +0.000 C 
BRANCH  27  28
ATOM     28  C   UNL     1      -7.119  -9.097  -6.968  0.00  0.00    +0.000 C 
ATOM     29  H   UNL     1      -7.870  -9.876  -6.821  0.00  0.00    +0.000 HD
ATOM     30  H   UNL     1      -7.517  -8.126  -6.664  0.00  0.00    +0.000 HD
ATOM     31  H   UNL     1      -6.856  -9.055  -8.029  0.00  0.00    +0.000 HD
ENDBRANCH  27  28
ENDBRANCH  23  27
ENDBRANCH  20  23
ENDBRANCH  17  20
ENDBRANCH   1  17
TORSDOF 9
ENDMDL
MODEL 5
REMARK VINA RESULT:    -4.426      9.032     10.751
REMARK INTER + INTRA:          -6.753
REMARK INTER:                  -6.290
REMARK INTRA:                  -0.464
REMARK UNBOUND:                -0.258
REMARK  Name = 12741
REMARK  9 active torsions:
REMARK  status: ('A' for Active; 'I' for Inactive)
REMARK    1  A    between atoms: C_2  and  C_3
REMARK    2  A    between atoms: C_2  and  C_4
REMARK    3  A    between atoms: C_3  and  C_5
REMARK    4  A    between atoms: C_4  and  C_6
REMARK    5  A    between atoms: C_5  and  C_7
REMARK    6  A    between atoms: C_6  and  C_8
REMARK    7  A    between atoms: C_7  and  C_9
REMARK    8  A    between atoms: C_8  and  C_10
REMARK    9  A    between atoms: C_10  and  C_11
REMARK                            x       y       z     vdW  Elec       q    Type
REMARK                         _______ _______ _______ _____ _____    ______ ____
ROOT
ATOM      1  C   UNL     1       5.909 -11.994  -0.508  0.00  0.00    +0.000 C 
ATOM      2  H   UNL     1       5.433 -11.516  -1.372  0.00  0.00    +0.000 HD
ATOM      3  H   UNL     1       5.639 -11.405   0.378  0.00  0.00    +0.000 HD
ENDROOT
BRANCH   1   4
ATOM      4  C   UNL     1       7.428 -11.983  -0.686  0.00  0.00    +0.000 C 
ATOM      5  H   UNL     1       7.674 -11.838  -1.744  0.00  0.00    +0.000 HD
ATOM      6  H   UNL     1       7.839 -12.956  -0.389  0.00  0.00    +0.000 HD
BRANCH   4   7
ATOM      7  C   UNL     1       8.078 -10.879   0.150  0.00  0.00    +0.000 C 
ATOM      8  H   UNL     1       7.350 -10.487   0.872  0.00  0.00    +0.000 HD
ATOM      9  H   UNL     1       8.910 -11.298   0.727  0.00  0.00    +0.000 HD
BRANCH   7  10
ATOM     10  C   UNL     1       8.590  -9.742  -0.733  0.00  0.00    +0.000 C 
ATOM     11  H   UNL     1       7.940  -9.629  -1.609  0.00  0.00    +0.000 HD
ATOM     12  H   UNL     1       8.557  -8.796  -0.180  0.00  0.00    +0.000 HD
BRANCH  10  13
ATOM     13  C   UNL     1      10.013  -9.999  -1.203  0.00  0.00    +0.000 C 
ATOM     14  H   UNL     1      10.496  -9.067  -1.516  0.00  0.00    +0.000 HD
ATOM     15  H   UNL     1      10.013 -10.685  -2.055  0.00  0.00    +0.000 HD
ATOM     16  H   UNL     1      10.615 -10.446  -0.405  0.00  0.00    +0.000 HD
ENDBRANCH  10  13
ENDBRANCH   7  10
ENDBRANCH   4   7
ENDBRANCH   1   4
BRANCH   1  17
ATOM     17  C   UNL     1       5.378 -13.421  -0.352  0.00  0.00    +0.000 C 
ATOM     18  H   UNL     1       6.148 -14.137  -0.661  0.00  0.00    +0.000 HD
ATOM     19  H   UNL     1       4.517 -13.564  -1.017  0.00  0.00    +0.000 HD
BRANCH  17  20
ATOM     20  C   UNL     1       4.967 -13.707   1.093  0.00  0.00    +0.000 C 
ATOM     21  H   UNL     1       4.011 -14.246   1.107  0.00  0.00    +0.000 HD
ATOM     22  H   UNL     1       5.707 -14.368   1.562  0.00  0.00    +0.000 HD
BRANCH  20  23
ATOM     23  C   UNL     1       4.843 -12.419   1.901  0.00  0.00    +0.000 C 
ATOM     24  H   UNL     1       5.240 -11.576   1.324  0.00  0.00    +0.000 HD
ATOM     25  H   UNL     1       5.416 -12.506   2.831  0.00  0.00    +0.000 HD
BRANCH  23  27
ATOM     26  O   UNL     1       2.852 -12.563   3.265  0.00  0.00    +0.000 OA
ATOM     27  C   UNL     1       3.405 -12.098   2.270  0.00  0.00    +0.000 C 
BRANCH  27  28
ATOM     28  C   UNL     1       2.675 -11.164   1.341  0.00  0.00    +0.000 C 
ATOM     29  H   UNL     1       2.558 -10.188   1.818  0.00  0.00    +0.000 HD
ATOM     30  H   UNL     1       3.236 -11.063   0.408  0.00  0.00    +0.000 HD
ATOM     31  H   UNL     1       1.684 -11.568   1.115  0.00  0.00    +0.000 HD
ENDBRANCH  27  28
ENDBRANCH  23  27
ENDBRANCH  20  23
ENDBRANCH  17  20
ENDBRANCH   1  17
TORSDOF 9
ENDMDL
MODEL 6
REMARK VINA RESULT:    -4.409      2.503      5.344
REMARK INTER + INTRA:          -6.729
REMARK INTER:                  -6.271
REMARK INTRA:                  -0.458
REMARK UNBOUND:                -0.258
REMARK  Name = 12741
REMARK  9 active torsions:
REMARK  status: ('A' for Active; 'I' for Inactive)
REMARK    1  A    between atoms: C_2  and  C_3
REMARK    2  A    between atoms: C_2  and  C_4
REMARK    3  A    between atoms: C_3  and  C_5
REMARK    4  A    between atoms: C_4  and  C_6
REMARK    5  A    between atoms: C_5  and  C_7
REMARK    6  A    between atoms: C_6  and  C_8
REMARK    7  A    between atoms: C_7  and  C_9
REMARK    8  A    between atoms: C_8  and  C_10
REMARK    9  A    between atoms: C_10  and  C_11
REMARK                            x       y       z     vdW  Elec       q    Type
REMARK                         _______ _______ _______ _____ _____    ______ ____
ROOT
ATOM      1  C   UNL     1       7.510  -2.815  -3.596  0.00  0.00    +0.000 C 
ATOM      2  H   UNL     1       7.684  -3.636  -4.302  0.00  0.00    +0.000 HD
ATOM      3  H   UNL     1       7.648  -1.878  -4.150  0.00  0.00    +0.000 HD
ENDROOT
BRANCH   1   4
ATOM      4  C   UNL     1       8.527  -2.891  -2.457  0.00  0.00    +0.000 C 
ATOM      5  H   UNL     1       8.964  -3.896  -2.419  0.00  0.00    +0.000 HD
ATOM      6  H   UNL     1       8.019  -2.723  -1.500  0.00  0.00    +0.000 HD
BRANCH   4   7
ATOM      7  C   UNL     1       9.638  -1.854  -2.633  0.00  0.00    +0.000 C 
ATOM      8  H   UNL     1      10.575  -2.359  -2.900  0.00  0.00    +0.000 HD
ATOM      9  H   UNL     1       9.385  -1.183  -3.462  0.00  0.00    +0.000 HD
BRANCH   7  10
ATOM     10  C   UNL     1       9.841  -1.036  -1.358  0.00  0.00    +0.000 C 
ATOM     11  H   UNL     1      10.582  -0.248  -1.535  0.00  0.00    +0.000 HD
ATOM     12  H   UNL     1       8.903  -0.543  -1.079  0.00  0.00    +0.000 HD
BRANCH  10  13
ATOM     13  C   UNL     1      10.311  -1.908  -0.205  0.00  0.00    +0.000 C 
ATOM     14  H   UNL     1       9.473  -2.454   0.240  0.00  0.00    +0.000 HD
ATOM     15  H   UNL     1      10.768  -1.292   0.575  0.00  0.00    +0.000 HD
ATOM     16  H   UNL     1      11.056  -2.638  -0.543  0.00  0.00    +0.000 HD
ENDBRANCH  10  13
ENDBRANCH   7  10
ENDBRANCH   4   7
ENDBRANCH   1   4
BRANCH   1  17
ATOM     17  C   UNL     1       6.076  -2.887  -3.067  0.00  0.00    +0.000 C 
ATOM     18  H   UNL     1       5.645  -3.867  -3.304  0.00  0.00    +0.000 HD
ATOM     19  H   UNL     1       5.461  -2.133  -3.574  0.00  0.00    +0.000 HD
BRANCH  17  20
ATOM     20  C   UNL     1       6.028  -2.661  -1.556  0.00  0.00    +0.000 C 
ATOM     21  H   UNL     1       7.042  -2.714  -1.140  0.00  0.00    +0.000 HD
ATOM     22  H   UNL     1       5.655  -1.650  -1.347  0.00  0.00    +0.000 HD
BRANCH  20  23
ATOM     23  C   UNL     1       5.134  -3.689  -0.868  0.00  0.00    +0.000 C 
ATOM     24  H   UNL     1       5.728  -4.294  -0.173  0.00  0.00    +0.000 HD
ATOM     25  H   UNL     1       4.687  -4.354  -1.616  0.00  0.00    +0.000 HD
BRANCH  23  27
ATOM     26  O   UNL     1       3.943  -3.079   1.145  0.00  0.00    +0.000 OA
ATOM     27  C   UNL     1       4.004  -3.047  -0.083  0.00  0.00    +0.000 C 
BRANCH  27  28
ATOM     28  C   UNL     1       2.940  -2.356  -0.896  0.00  0.00    +0.000 C 
ATOM     29  H   UNL     1       2.061  -2.999  -0.971  0.00  0.00    +0.000 HD
ATOM     30  H   UNL     1       2.676  -1.408  -0.422  0.00  0.00    +0.000 HD
ATOM     31  H   UNL     1       3.318  -2.155  -1.903  0.00  0.00    +0.000 HD
ENDBRANCH  27  28
ENDBRANCH  23  27
ENDBRANCH  20  23
ENDBRANCH  17  20
ENDBRANCH   1  17
TORSDOF 9
ENDMDL
MODEL 7
REMARK VINA RESULT:    -4.350      8.701     10.276
REMARK INTER + INTRA:          -6.642
REMARK INTER:                  -6.161
REMARK INTRA:                  -0.481
REMARK UNBOUND:                -0.258
REMARK  Name = 12741
REMARK  9 active torsions:
REMARK  status: ('A' for Active; 'I' for Inactive)
REMARK    1  A    between atoms: C_2  and  C_3
REMARK    2  A    between atoms: C_2  and  C_4
REMARK    3  A    between atoms: C_3  and  C_5
REMARK    4  A    between atoms: C_4  and  C_6
REMARK    5  A    between atoms: C_5  and  C_7
REMARK    6  A    between atoms: C_6  and  C_8
REMARK    7  A    between atoms: C_7  and  C_9
REMARK    8  A    between atoms: C_8  and  C_10
REMARK    9  A    between atoms: C_10  and  C_11
REMARK                            x       y       z     vdW  Elec       q    Type
REMARK                         _______ _______ _______ _____ _____    ______ ____
ROOT
ATOM      1  C   UNL     1       9.866 -10.343  -1.276  0.00  0.00    +0.000 C 
ATOM      2  H   UNL     1      10.338 -11.100  -0.638  0.00  0.00    +0.000 HD
ATOM      3  H   UNL     1       9.659 -10.818  -2.243  0.00  0.00    +0.000 HD
ENDROOT
BRANCH   1   4
ATOM      4  C   UNL     1      10.827  -9.171  -1.478  0.00  0.00    +0.000 C 
ATOM      5  H   UNL     1      11.339  -8.947  -0.535  0.00  0.00    +0.000 HD
ATOM      6  H   UNL     1      10.259  -8.276  -1.758  0.00  0.00    +0.000 HD
BRANCH   4   7
ATOM      7  C   UNL     1      11.860  -9.479  -2.564  0.00  0.00    +0.000 C 
ATOM      8  H   UNL     1      11.866  -8.671  -3.306  0.00  0.00    +0.000 HD
ATOM      9  H   UNL     1      12.861  -9.514  -2.118  0.00  0.00    +0.000 HD
BRANCH   7  10
ATOM     10  C   UNL     1      11.560 -10.809  -3.254  0.00  0.00    +0.000 C 
ATOM     11  H   UNL     1      12.247 -11.581  -2.889  0.00  0.00    +0.000 HD
ATOM     12  H   UNL     1      10.543 -11.135  -3.008  0.00  0.00    +0.000 HD
BRANCH  10  13
ATOM     13  C   UNL     1      11.699 -10.697  -4.764  0.00  0.00    +0.000 C 
ATOM     14  H   UNL     1      10.778 -11.009  -5.266  0.00  0.00    +0.000 HD
ATOM     15  H   UNL     1      12.513 -11.337  -5.118  0.00  0.00    +0.000 HD
ATOM     16  H   UNL     1      11.921  -9.667  -5.063  0.00  0.00    +0.000 HD
ENDBRANCH  10  13
ENDBRANCH   7  10
ENDBRANCH   4   7
ENDBRANCH   1   4
BRANCH   1  17
ATOM     17  C   UNL     1       8.552  -9.883  -0.642  0.00  0.00    +0.000 C 
ATOM     18  H   UNL     1       7.977  -9.297  -1.370  0.00  0.00    +0.000 HD
ATOM     19  H   UNL     1       8.768  -9.222   0.206  0.00  0.00    +0.000 HD
BRANCH  17  20
ATOM     20  C   UNL     1       7.715 -11.072  -0.170  0.00  0.00    +0.000 C 
ATOM     21  H   UNL     1       7.435 -10.934   0.882  0.00  0.00    +0.000 HD
ATOM     22  H   UNL     1       6.779 -11.113  -0.742  0.00  0.00    +0.000 HD
BRANCH  20  23
ATOM     23  C   UNL     1       8.474 -12.385  -0.333  0.00  0.00    +0.000 C 
ATOM     24  H   UNL     1       8.695 -12.814   0.652  0.00  0.00    +0.000 HD
ATOM     25  H   UNL     1       9.420 -12.207  -0.856  0.00  0.00    +0.000 HD
BRANCH  23  27
ATOM     26  O   UNL     1       6.521 -13.701  -0.880  0.00  0.00    +0.000 OA
ATOM     27  C   UNL     1       7.691 -13.417  -1.127  0.00  0.00    +0.000 C 
BRANCH  27  28
ATOM     28  C   UNL     1       8.433 -14.087  -2.255  0.00  0.00    +0.000 C 
ATOM     29  H   UNL     1       7.796 -14.850  -2.709  0.00  0.00    +0.000 HD
ATOM     30  H   UNL     1       8.719 -13.341  -2.999  0.00  0.00    +0.000 HD
ATOM     31  H   UNL     1       9.337 -14.566  -1.868  0.00  0.00    +0.000 HD
ENDBRANCH  27  28
ENDBRANCH  23  27
ENDBRANCH  20  23
ENDBRANCH  17  20
ENDBRANCH   1  17
TORSDOF 9
ENDMDL
MODEL 8
REMARK VINA RESULT:    -4.309      6.923     10.157
REMARK INTER + INTRA:          -6.582
REMARK INTER:                  -6.282
REMARK INTRA:                  -0.300
REMARK UNBOUND:                -0.258
REMARK  Name = 12741
REMARK  9 active torsions:
REMARK  status: ('A' for Active; 'I' for Inactive)
REMARK    1  A    between atoms: C_2  and  C_3
REMARK    2  A    between atoms: C_2  and  C_4
REMARK    3  A    between atoms: C_3  and  C_5
REMARK    4  A    between atoms: C_4  and  C_6
REMARK    5  A    between atoms: C_5  and  C_7
REMARK    6  A    between atoms: C_6  and  C_8
REMARK    7  A    between atoms: C_7  and  C_9
REMARK    8  A    between atoms: C_8  and  C_10
REMARK    9  A    between atoms: C_10  and  C_11
REMARK                            x       y       z     vdW  Elec       q    Type
REMARK                         _______ _______ _______ _____ _____    ______ ____
ROOT
ATOM      1  C   UNL     1      12.860 -10.758  -3.329  0.00  0.00    +0.000 C 
ATOM      2  H   UNL     1      13.109 -11.332  -2.428  0.00  0.00    +0.000 HD
ATOM      3  H   UNL     1      12.903 -11.453  -4.177  0.00  0.00    +0.000 HD
ENDROOT
BRANCH   1   4
ATOM      4  C   UNL     1      13.887  -9.643  -3.529  0.00  0.00    +0.000 C 
ATOM      5  H   UNL     1      14.652  -9.702  -2.746  0.00  0.00    +0.000 HD
ATOM      6  H   UNL     1      13.395  -8.669  -3.428  0.00  0.00    +0.000 HD
BRANCH   4   7
ATOM      7  C   UNL     1      14.551  -9.738  -4.905  0.00  0.00    +0.000 C 
ATOM      8  H   UNL     1      15.605 -10.019  -4.787  0.00  0.00    +0.000 HD
ATOM      9  H   UNL     1      14.069 -10.530  -5.490  0.00  0.00    +0.000 HD
BRANCH   7  10
ATOM     10  C   UNL     1      14.453  -8.413  -5.661  0.00  0.00    +0.000 C 
ATOM     11  H   UNL     1      13.430  -8.025  -5.601  0.00  0.00    +0.000 HD
ATOM     12  H   UNL     1      15.110  -7.670  -5.196  0.00  0.00    +0.000 HD
BRANCH  10  13
ATOM     13  C   UNL     1      14.836  -8.577  -7.123  0.00  0.00    +0.000 C 
ATOM     14  H   UNL     1      15.919  -8.483  -7.257  0.00  0.00    +0.000 HD
ATOM     15  H   UNL     1      14.350  -7.807  -7.730  0.00  0.00    +0.000 HD
ATOM     16  H   UNL     1      14.527  -9.556  -7.503  0.00  0.00    +0.000 HD
ENDBRANCH  10  13
ENDBRANCH   7  10
ENDBRANCH   4   7
ENDBRANCH   1   4
BRANCH   1  17
ATOM     17  C   UNL     1      11.444 -10.194  -3.204  0.00  0.00    +0.000 C 
ATOM     18  H   UNL     1      10.751 -10.801  -3.800  0.00  0.00    +0.000 HD
ATOM     19  H   UNL     1      11.418  -9.177  -3.615  0.00  0.00    +0.000 HD
BRANCH  17  20
ATOM     20  C   UNL     1      10.979 -10.173  -1.747  0.00  0.00    +0.000 C 
ATOM     21  H   UNL     1      10.112 -10.834  -1.625  0.00  0.00    +0.000 HD
ATOM     22  H   UNL     1      11.773 -10.573  -1.103  0.00  0.00    +0.000 HD
BRANCH  20  23
ATOM     23  C   UNL     1      10.617  -8.760  -1.300  0.00  0.00    +0.000 C 
ATOM     24  H   UNL     1      10.726  -8.063  -2.138  0.00  0.00    +0.000 HD
ATOM     25  H   UNL     1      11.285  -8.442  -0.492  0.00  0.00    +0.000 HD
BRANCH  23  27
ATOM     26  O   UNL     1       8.649  -7.585  -0.529  0.00  0.00    +0.000 OA
ATOM     27  C   UNL     1       9.190  -8.658  -0.788  0.00  0.00    +0.000 C 
BRANCH  27  28
ATOM     28  C   UNL     1       8.455  -9.961  -0.611  0.00  0.00    +0.000 C 
ATOM     29  H   UNL     1       7.516  -9.932  -1.168  0.00  0.00    +0.000 HD
ATOM     30  H   UNL     1       9.079 -10.785  -0.965  0.00  0.00    +0.000 HD
ATOM     31  H   UNL     1       8.232 -10.117   0.449  0.00  0.00    +0.000 HD
ENDBRANCH  27  28
ENDBRANCH  23  27
ENDBRANCH  20  23
ENDBRANCH  17  20
ENDBRANCH   1  17
TORSDOF 9
ENDMDL
MODEL 9
REMARK VINA RESULT:    -4.262     10.635     12.443
REMARK INTER + INTRA:          -6.513
REMARK INTER:                  -5.929
REMARK INTRA:                  -0.585
REMARK UNBOUND:                -0.258
REMARK  Name = 12741
REMARK  9 active torsions:
REMARK  status: ('A' for Active; 'I' for Inactive)
REMARK    1  A    between atoms: C_2  and  C_3
REMARK    2  A    between atoms: C_2  and  C_4
REMARK    3  A    between atoms: C_3  and  C_5
REMARK    4  A    between atoms: C_4  and  C_6
REMARK    5  A    between atoms: C_5  and  C_7
REMARK    6  A    between atoms: C_6  and  C_8
REMARK    7  A    between atoms: C_7  and  C_9
REMARK    8  A    between atoms: C_8  and  C_10
REMARK    9  A    between atoms: C_10  and  C_11
REMARK                            x       y       z     vdW  Elec       q    Type
REMARK                         _______ _______ _______ _____ _____    ______ ____
ROOT
ATOM      1  C   UNL     1       3.208 -11.953   2.722  0.00  0.00    +0.000 C 
ATOM      2  H   UNL     1       2.650 -11.011   2.668  0.00  0.00    +0.000 HD
ATOM      3  H   UNL     1       3.819 -11.916   3.632  0.00  0.00    +0.000 HD
ENDROOT
BRANCH   1   4
ATOM      4  C   UNL     1       4.118 -12.083   1.500  0.00  0.00    +0.000 C 
ATOM      5  H   UNL     1       4.338 -13.140   1.314  0.00  0.00    +0.000 HD
ATOM      6  H   UNL     1       5.074 -11.584   1.700  0.00  0.00    +0.000 HD
BRANCH   4   7
ATOM      7  C   UNL     1       3.472 -11.466   0.257  0.00  0.00    +0.000 C 
ATOM      8  H   UNL     1       2.453 -11.856   0.140  0.00  0.00    +0.000 HD
ATOM      9  H   UNL     1       3.389 -10.381   0.388  0.00  0.00    +0.000 HD
BRANCH   7  10
ATOM     10  C   UNL     1       4.286 -11.768  -1.000  0.00  0.00    +0.000 C 
ATOM     11  H   UNL     1       3.635 -11.741  -1.881  0.00  0.00    +0.000 HD
ATOM     12  H   UNL     1       5.054 -10.999  -1.140  0.00  0.00    +0.000 HD
BRANCH  10  13
ATOM     13  C   UNL     1       4.952 -13.133  -0.918  0.00  0.00    +0.000 C 
ATOM     14  H   UNL     1       5.410 -13.286   0.064  0.00  0.00    +0.000 HD
ATOM     15  H   UNL     1       5.736 -13.218  -1.677  0.00  0.00    +0.000 HD
ATOM     16  H   UNL     1       4.226 -13.935  -1.087  0.00  0.00    +0.000 HD
ENDBRANCH  10  13
ENDBRANCH   7  10
ENDBRANCH   4   7
ENDBRANCH   1   4
BRANCH   1  17
ATOM     17  C   UNL     1       2.229 -13.126   2.813  0.00  0.00    +0.000 C 
ATOM     18  H   UNL     1       1.932 -13.438   1.805  0.00  0.00    +0.000 HD
ATOM     19  H   UNL     1       1.318 -12.802   3.332  0.00  0.00    +0.000 HD
BRANCH  17  20
ATOM     20  C   UNL     1       2.848 -14.313   3.552  0.00  0.00    +0.000 C 
ATOM     21  H   UNL     1       3.885 -14.079   3.825  0.00  0.00    +0.000 HD
ATOM     22  H   UNL     1       2.306 -14.485   4.490  0.00  0.00    +0.000 HD
BRANCH  20  23
ATOM     23  C   UNL     1       2.813 -15.578   2.699  0.00  0.00    +0.000 C 
ATOM     24  H   UNL     1       2.025 -15.496   1.941  0.00  0.00    +0.000 HD
ATOM     25  H   UNL     1       2.601 -16.447   3.330  0.00  0.00    +0.000 HD
BRANCH  23  27
ATOM     26  O   UNL     1       5.165 -15.237   2.257  0.00  0.00    +0.000 OA
ATOM     27  C   UNL     1       4.127 -15.834   1.981  0.00  0.00    +0.000 C 
BRANCH  27  28
ATOM     28  C   UNL     1       4.096 -16.876   0.894  0.00  0.00    +0.000 C 
ATOM     29  H   UNL     1       3.813 -17.842   1.319  0.00  0.00    +0.000 HD
ATOM     30  H   UNL     1       3.382 -16.579   0.122  0.00  0.00    +0.000 HD
ATOM     31  H   UNL     1       5.088 -16.967   0.442  0.00  0.00    +0.000 HD
ENDBRANCH  27  28
ENDBRANCH  23  27
ENDBRANCH  20  23
ENDBRANCH  17  20
ENDBRANCH   1  17
TORSDOF 9
ENDMDL
MODEL 10
REMARK VINA RESULT:    -4.188      7.624     10.516
REMARK INTER + INTRA:          -6.405
REMARK INTER:                  -6.147
REMARK INTRA:                  -0.258
REMARK UNBOUND:                -0.258
REMARK  Name = 12741
REMARK  9 active torsions:
REMARK  status: ('A' for Active; 'I' for Inactive)
REMARK    1  A    between atoms: C_2  and  C_3
REMARK    2  A    between atoms: C_2  and  C_4
REMARK    3  A    between atoms: C_3  and  C_5
REMARK    4  A    between atoms: C_4  and  C_6
REMARK    5  A    between atoms: C_5  and  C_7
REMARK    6  A    between atoms: C_6  and  C_8
REMARK    7  A    between atoms: C_7  and  C_9
REMARK    8  A    between atoms: C_8  and  C_10
REMARK    9  A    between atoms: C_10  and  C_11
REMARK                            x       y       z     vdW  Elec       q    Type
REMARK                         _______ _______ _______ _____ _____    ______ ____
ROOT
ATOM      1  C   UNL     1      12.063  -9.332  -4.050  0.00  0.00    +0.000 C 
ATOM      2  H   UNL     1      11.321  -9.929  -4.595  0.00  0.00    +0.000 HD
ATOM      3  H   UNL     1      11.746  -8.284  -4.114  0.00  0.00    +0.000 HD
ENDROOT
BRANCH   1   4
ATOM      4  C   UNL     1      13.434  -9.493  -4.707  0.00  0.00    +0.000 C 
ATOM      5  H   UNL     1      13.894  -8.508  -4.846  0.00  0.00    +0.000 HD
ATOM      6  H   UNL     1      13.314  -9.937  -5.703  0.00  0.00    +0.000 HD
BRANCH   4   7
ATOM      7  C   UNL     1      14.355 -10.377  -3.863  0.00  0.00    +0.000 C 
ATOM      8  H   UNL     1      15.076  -9.749  -3.326  0.00  0.00    +0.000 HD
ATOM      9  H   UNL     1      13.763 -10.907  -3.109  0.00  0.00    +0.000 HD
BRANCH   7  10
ATOM     10  C   UNL     1      15.101 -11.390  -4.732  0.00  0.00    +0.000 C 
ATOM     11  H   UNL     1      14.384 -12.053  -5.230  0.00  0.00    +0.000 HD
ATOM     12  H   UNL     1      15.660 -10.867  -5.516  0.00  0.00    +0.000 HD
BRANCH  10  13
ATOM     13  C   UNL     1      16.062 -12.230  -3.906  0.00  0.00    +0.000 C 
ATOM     14  H   UNL     1      16.620 -11.606  -3.200  0.00  0.00    +0.000 HD
ATOM     15  H   UNL     1      16.782 -12.733  -4.559  0.00  0.00    +0.000 HD
ATOM     16  H   UNL     1      15.525 -12.997  -3.337  0.00  0.00    +0.000 HD
ENDBRANCH  10  13
ENDBRANCH   7  10
ENDBRANCH   4   7
ENDBRANCH   1   4
BRANCH   1  17
ATOM     17  C   UNL     1      12.094  -9.767  -2.583  0.00  0.00    +0.000 C 
ATOM     18  H   UNL     1      13.049  -9.470  -2.131  0.00  0.00    +0.000 HD
ATOM     19  H   UNL     1      12.036 -10.861  -2.525  0.00  0.00    +0.000 HD
BRANCH  17  20
ATOM     20  C   UNL     1      10.942  -9.146  -1.793  0.00  0.00    +0.000 C 
ATOM     21  H   UNL     1      11.332  -8.389  -1.101  0.00  0.00    +0.000 HD
ATOM     22  H   UNL     1      10.264  -8.624  -2.481  0.00  0.00    +0.000 HD
BRANCH  20  23
ATOM     23  C   UNL     1      10.167 -10.206  -1.015  0.00  0.00    +0.000 C 
ATOM     24  H   UNL     1      10.718 -10.482  -0.109  0.00  0.00    +0.000 HD
ATOM     25  H   UNL     1      10.038 -11.101  -1.632  0.00  0.00    +0.000 HD
BRANCH  23  27
ATOM     26  O   UNL     1       8.473  -8.540  -0.565  0.00  0.00    +0.000 OA
ATOM     27  C   UNL     1       8.787  -9.728  -0.596  0.00  0.00    +0.000 C 
BRANCH  27  28
ATOM     28  C   UNL     1       7.802 -10.802  -0.212  0.00  0.00    +0.000 C 
ATOM     29  H   UNL     1       6.896 -10.342   0.188  0.00  0.00    +0.000 HD
ATOM     30  H   UNL     1       7.564 -11.410  -1.088  0.00  0.00    +0.000 HD
ATOM     31  H   UNL     1       8.240 -11.445   0.557  0.00  0.00    +0.000 HD
ENDBRANCH  27  28
ENDBRANCH  23  27
ENDBRANCH  20  23
ENDBRANCH  17  20
ENDBRANCH   1  17
TORSDOF 9
ENDMDL
