MODEL 1
REMARK VINA RESULT:    -4.274      0.000      0.000
REMARK INTER + INTRA:          -6.323
REMARK INTER:                  -5.968
REMARK INTRA:                  -0.355
REMARK UNBOUND:                -0.424
REMARK  Name = 7720
REMARK  8 active torsions:
REMARK  status: ('A' for Active; 'I' for Inactive)
REMARK    1  A    between atoms: O_1  and  C_6
REMARK    2  A    between atoms: C_2  and  C_3
REMARK    3  A    between atoms: C_2  and  C_5
REMARK    4  A    between atoms: C_2  and  C_6
REMARK    5  A    between atoms: C_3  and  C_4
REMARK    6  A    between atoms: C_4  and  C_7
REMARK    7  A    between atoms: C_5  and  C_8
REMARK    8  A    between atoms: C_7  and  C_9
REMARK                            x       y       z     vdW  Elec       q    Type
REMARK                         _______ _______ _______ _____ _____    ______ ____
ROOT
ATOM      1  C   UNL     1       2.194  -3.776  15.669  0.00  0.00    +0.000 C 
ATOM      2  H   UNL     1       1.945  -3.316  16.637  0.00  0.00    +0.000 HD
ENDROOT
BRANCH   1   3
ATOM      3  C   UNL     1       0.925  -4.486  15.152  0.00  0.00    +0.000 C 
ATOM      4  H   UNL     1       0.282  -3.748  14.655  0.00  0.00    +0.000 HD
ATOM      5  H   UNL     1       1.193  -5.222  14.385  0.00  0.00    +0.000 HD
BRANCH   3   6
ATOM      6  C   UNL     1       0.108  -5.166  16.256  0.00  0.00    +0.000 C 
ATOM      7  H   UNL     1      -0.802  -4.583  16.446  0.00  0.00    +0.000 HD
ATOM      8  H   UNL     1       0.681  -5.180  17.189  0.00  0.00    +0.000 HD
BRANCH   6   9
ATOM      9  C   UNL     1      -0.274  -6.610  15.920  0.00  0.00    +0.000 C 
ATOM     10  H   UNL     1      -0.569  -7.129  16.839  0.00  0.00    +0.000 HD
ATOM     11  H   UNL     1      -1.148  -6.610  15.258  0.00  0.00    +0.000 HD
BRANCH   9  12
ATOM     12  C   UNL     1       0.846  -7.391  15.250  0.00  0.00    +0.000 C 
ATOM     13  H   UNL     1       1.739  -6.765  15.149  0.00  0.00    +0.000 HD
ATOM     14  H   UNL     1       1.113  -8.274  15.839  0.00  0.00    +0.000 HD
ATOM     15  H   UNL     1       0.547  -7.722  14.250  0.00  0.00    +0.000 HD
ENDBRANCH   9  12
ENDBRANCH   6   9
ENDBRANCH   3   6
ENDBRANCH   1   3
BRANCH   1  16
ATOM     16  C   UNL     1       3.381  -4.725  15.945  0.00  0.00    +0.000 C 
ATOM     17  H   UNL     1       4.325  -4.223  15.701  0.00  0.00    +0.000 HD
ATOM     18  H   UNL     1       3.322  -5.579  15.259  0.00  0.00    +0.000 HD
BRANCH  16  19
ATOM     19  C   UNL     1       3.462  -5.264  17.367  0.00  0.00    +0.000 C 
ATOM     20  H   UNL     1       3.607  -4.461  18.095  0.00  0.00    +0.000 HD
ATOM     21  H   UNL     1       4.313  -5.947  17.456  0.00  0.00    +0.000 HD
ATOM     22  H   UNL     1       2.563  -5.824  17.640  0.00  0.00    +0.000 HD
ENDBRANCH  16  19
ENDBRANCH   1  16
BRANCH   1  23
ATOM     23  C   UNL     1       2.567  -2.635  14.708  0.00  0.00    +0.000 C 
ATOM     24  H   UNL     1       2.951  -3.031  13.763  0.00  0.00    +0.000 HD
ATOM     25  H   UNL     1       3.337  -1.981  15.127  0.00  0.00    +0.000 HD
BRANCH  23  26
ATOM     26  O   UNL     1       1.421  -1.850  14.409  0.00  0.00    +0.000 OA
ATOM     27  H   UNL     1       1.554  -1.460  13.528  0.00  0.00    +0.000 HD
ENDBRANCH  23  26
ENDBRANCH   1  23
TORSDOF 8
ENDMDL
MODEL 2
REMARK VINA RESULT:    -3.979     15.784     17.368
REMARK INTER + INTRA:          -5.915
REMARK INTER:                  -5.726
REMARK INTRA:                  -0.189
REMARK UNBOUND:                -0.424
REMARK  Name = 7720
REMARK  8 active torsions:
REMARK  status: ('A' for Active; 'I' for Inactive)
REMARK    1  A    between atoms: O_1  and  C_6
REMARK    2  A    between atoms: C_2  and  C_3
REMARK    3  A    between atoms: C_2  and  C_5
REMARK    4  A    between atoms: C_2  and  C_6
REMARK    5  A    between atoms: C_3  and  C_4
REMARK    6  A    between atoms: C_4  and  C_7
REMARK    7  A    between atoms: C_5  and  C_8
REMARK    8  A    between atoms: C_7  and  C_9
REMARK                            x       y       z     vdW  Elec       q    Type
REMARK                         _______ _______ _______ _____ _____    ______ ____
ROOT
ATOM      1  C   UNL     1       5.300  -2.913  -0.440  0.00  0.00    +0.000 C 
ATOM      2  H   UNL     1       5.685  -1.942  -0.097  0.00  0.00    +0.000 HD
ENDROOT
BRANCH   1   3
ATOM      3  C   UNL     1       6.503  -3.735  -0.950  0.00  0.00    +0.000 C 
ATOM      4  H   UNL     1       6.964  -4.256  -0.101  0.00  0.00    +0.000 HD
ATOM      5  H   UNL     1       6.159  -4.518  -1.637  0.00  0.00    +0.000 HD
BRANCH   3   6
ATOM      6  C   UNL     1       7.581  -2.888  -1.634  0.00  0.00    +0.000 C 
ATOM      7  H   UNL     1       7.155  -2.405  -2.522  0.00  0.00    +0.000 HD
ATOM      8  H   UNL     1       8.398  -3.530  -1.979  0.00  0.00    +0.000 HD
BRANCH   6   9
ATOM      9  C   UNL     1       8.182  -1.821  -0.714  0.00  0.00    +0.000 C 
ATOM     10  H   UNL     1       7.682  -0.862  -0.897  0.00  0.00    +0.000 HD
ATOM     11  H   UNL     1       7.987  -2.090   0.330  0.00  0.00    +0.000 HD
BRANCH   9  12
ATOM     12  C   UNL     1       9.680  -1.638  -0.900  0.00  0.00    +0.000 C 
ATOM     13  H   UNL     1      10.146  -2.584  -1.191  0.00  0.00    +0.000 HD
ATOM     14  H   UNL     1       9.890  -0.900  -1.681  0.00  0.00    +0.000 HD
ATOM     15  H   UNL     1      10.150  -1.297   0.029  0.00  0.00    +0.000 HD
ENDBRANCH   9  12
ENDBRANCH   6   9
ENDBRANCH   3   6
ENDBRANCH   1   3
BRANCH   1  16
ATOM     16  C   UNL     1       4.249  -2.592  -1.526  0.00  0.00    +0.000 C 
ATOM     17  H   UNL     1       4.168  -3.430  -2.226  0.00  0.00    +0.000 HD
ATOM     18  H   UNL     1       4.605  -1.746  -2.127  0.00  0.00    +0.000 HD
BRANCH  16  19
ATOM     19  C   UNL     1       2.861  -2.249  -1.001  0.00  0.00    +0.000 C 
ATOM     20  H   UNL     1       2.608  -1.201  -1.187  0.00  0.00    +0.000 HD
ATOM     21  H   UNL     1       2.825  -2.409   0.081  0.00  0.00    +0.000 HD
ATOM     22  H   UNL     1       2.091  -2.879  -1.452  0.00  0.00    +0.000 HD
ENDBRANCH  16  19
ENDBRANCH   1  16
BRANCH   1  23
ATOM     23  C   UNL     1       4.685  -3.614   0.782  0.00  0.00    +0.000 C 
ATOM     24  H   UNL     1       4.733  -4.703   0.672  0.00  0.00    +0.000 HD
ATOM     25  H   UNL     1       3.635  -3.346   0.924  0.00  0.00    +0.000 HD
BRANCH  23  26
ATOM     26  O   UNL     1       5.404  -3.271   1.959  0.00  0.00    +0.000 OA
ATOM     27  H   UNL     1       4.767  -3.238   2.692  0.00  0.00    +0.000 HD
ENDBRANCH  23  26
ENDBRANCH   1  23
TORSDOF 8
ENDMDL
MODEL 3
REMARK VINA RESULT:    -3.971     17.078     18.442
REMARK INTER + INTRA:          -5.904
REMARK INTER:                  -5.532
REMARK INTRA:                  -0.372
REMARK UNBOUND:                -0.424
REMARK  Name = 7720
REMARK  8 active torsions:
REMARK  status: ('A' for Active; 'I' for Inactive)
REMARK    1  A    between atoms: O_1  and  C_6
REMARK    2  A    between atoms: C_2  and  C_3
REMARK    3  A    between atoms: C_2  and  C_5
REMARK    4  A    between atoms: C_2  and  C_6
REMARK    5  A    between atoms: C_3  and  C_4
REMARK    6  A    between atoms: C_4  and  C_7
REMARK    7  A    between atoms: C_5  and  C_8
REMARK    8  A    between atoms: C_7  and  C_9
REMARK                            x       y       z     vdW  Elec       q    Type
REMARK                         _______ _______ _______ _____ _____    ______ ____
ROOT
ATOM      1  C   UNL     1       6.967  -2.644  -0.345  0.00  0.00    +0.000 C 
ATOM      2  H   UNL     1       6.268  -2.479   0.488  0.00  0.00    +0.000 HD
ENDROOT
BRANCH   1   3
ATOM      3  C   UNL     1       7.916  -1.429  -0.403  0.00  0.00    +0.000 C 
ATOM      4  H   UNL     1       7.557  -0.732  -1.171  0.00  0.00    +0.000 HD
ATOM      5  H   UNL     1       7.882  -0.880   0.546  0.00  0.00    +0.000 HD
BRANCH   3   6
ATOM      6  C   UNL     1       9.367  -1.797  -0.731  0.00  0.00    +0.000 C 
ATOM      7  H   UNL     1       9.570  -2.817  -0.383  0.00  0.00    +0.000 HD
ATOM      8  H   UNL     1      10.051  -1.132  -0.194  0.00  0.00    +0.000 HD
BRANCH   6   9
ATOM      9  C   UNL     1       9.691  -1.695  -2.224  0.00  0.00    +0.000 C 
ATOM     10  H   UNL     1       8.782  -1.423  -2.774  0.00  0.00    +0.000 HD
ATOM     11  H   UNL     1      10.415  -0.888  -2.385  0.00  0.00    +0.000 HD
BRANCH   9  12
ATOM     12  C   UNL     1      10.255  -2.981  -2.809  0.00  0.00    +0.000 C 
ATOM     13  H   UNL     1      11.198  -2.781  -3.327  0.00  0.00    +0.000 HD
ATOM     14  H   UNL     1      10.446  -3.717  -2.022  0.00  0.00    +0.000 HD
ATOM     15  H   UNL     1       9.557  -3.421  -3.529  0.00  0.00    +0.000 HD
ENDBRANCH   9  12
ENDBRANCH   6   9
ENDBRANCH   3   6
ENDBRANCH   1   3
BRANCH   1  16
ATOM     16  C   UNL     1       6.089  -2.821  -1.604  0.00  0.00    +0.000 C 
ATOM     17  H   UNL     1       6.254  -3.814  -2.037  0.00  0.00    +0.000 HD
ATOM     18  H   UNL     1       6.420  -2.112  -2.372  0.00  0.00    +0.000 HD
BRANCH  16  19
ATOM     19  C   UNL     1       4.595  -2.619  -1.385  0.00  0.00    +0.000 C 
ATOM     20  H   UNL     1       4.029  -2.775  -2.308  0.00  0.00    +0.000 HD
ATOM     21  H   UNL     1       4.405  -1.594  -1.051  0.00  0.00    +0.000 HD
ATOM     22  H   UNL     1       4.204  -3.291  -0.617  0.00  0.00    +0.000 HD
ENDBRANCH  16  19
ENDBRANCH   1  16
BRANCH   1  23
ATOM     23  C   UNL     1       7.777  -3.908  -0.013  0.00  0.00    +0.000 C 
ATOM     24  H   UNL     1       7.490  -4.310   0.964  0.00  0.00    +0.000 HD
ATOM     25  H   UNL     1       8.852  -3.711   0.016  0.00  0.00    +0.000 HD
BRANCH  23  26
ATOM     26  O   UNL     1       7.529  -4.919  -0.980  0.00  0.00    +0.000 OA
ATOM     27  H   UNL     1       6.600  -4.840  -1.256  0.00  0.00    +0.000 HD
ENDBRANCH  23  26
ENDBRANCH   1  23
TORSDOF 8
ENDMDL
MODEL 4
REMARK VINA RESULT:    -3.956     15.963     17.362
REMARK INTER + INTRA:          -5.883
REMARK INTER:                  -5.546
REMARK INTRA:                  -0.337
REMARK UNBOUND:                -0.424
REMARK  Name = 7720
REMARK  8 active torsions:
REMARK  status: ('A' for Active; 'I' for Inactive)
REMARK    1  A    between atoms: O_1  and  C_6
REMARK    2  A    between atoms: C_2  and  C_3
REMARK    3  A    between atoms: C_2  and  C_5
REMARK    4  A    between atoms: C_2  and  C_6
REMARK    5  A    between atoms: C_3  and  C_4
REMARK    6  A    between atoms: C_4  and  C_7
REMARK    7  A    between atoms: C_5  and  C_8
REMARK    8  A    between atoms: C_7  and  C_9
REMARK                            x       y       z     vdW  Elec       q    Type
REMARK                         _______ _______ _______ _____ _____    ______ ____
ROOT
ATOM      1  C   UNL     1       4.457  -2.855  -0.189  0.00  0.00    +0.000 C 
ATOM      2  H   UNL     1       4.897  -1.851  -0.106  0.00  0.00    +0.000 HD
ENDROOT
BRANCH   1   3
ATOM      3  C   UNL     1       5.505  -3.767  -0.862  0.00  0.00    +0.000 C 
ATOM      4  H   UNL     1       5.999  -4.371  -0.090  0.00  0.00    +0.000 HD
ATOM      5  H   UNL     1       5.009  -4.477  -1.534  0.00  0.00    +0.000 HD
BRANCH   3   6
ATOM      6  C   UNL     1       6.584  -2.998  -1.632  0.00  0.00    +0.000 C 
ATOM      7  H   UNL     1       7.563  -3.454  -1.438  0.00  0.00    +0.000 HD
ATOM      8  H   UNL     1       6.635  -1.965  -1.272  0.00  0.00    +0.000 HD
BRANCH   6   9
ATOM      9  C   UNL     1       6.333  -2.956  -3.142  0.00  0.00    +0.000 C 
ATOM     10  H   UNL     1       5.900  -1.985  -3.410  0.00  0.00    +0.000 HD
ATOM     11  H   UNL     1       7.289  -3.037  -3.671  0.00  0.00    +0.000 HD
BRANCH   9  12
ATOM     12  C   UNL     1       5.408  -4.059  -3.631  0.00  0.00    +0.000 C 
ATOM     13  H   UNL     1       5.501  -4.944  -2.993  0.00  0.00    +0.000 HD
ATOM     14  H   UNL     1       4.364  -3.732  -3.611  0.00  0.00    +0.000 HD
ATOM     15  H   UNL     1       5.657  -4.350  -4.657  0.00  0.00    +0.000 HD
ENDBRANCH   9  12
ENDBRANCH   6   9
ENDBRANCH   3   6
ENDBRANCH   1   3
BRANCH   1  16
ATOM     16  C   UNL     1       3.156  -2.680  -1.003  0.00  0.00    +0.000 C 
ATOM     17  H   UNL     1       2.404  -3.402  -0.664  0.00  0.00    +0.000 HD
ATOM     18  H   UNL     1       3.353  -2.939  -2.051  0.00  0.00    +0.000 HD
BRANCH  16  19
ATOM     19  C   UNL     1       2.552  -1.283  -0.966  0.00  0.00    +0.000 C 
ATOM     20  H   UNL     1       1.662  -1.212  -1.598  0.00  0.00    +0.000 HD
ATOM     21  H   UNL     1       3.280  -0.555  -1.340  0.00  0.00    +0.000 HD
ATOM     22  H   UNL     1       2.283  -0.984   0.050  0.00  0.00    +0.000 HD
ENDBRANCH  16  19
ENDBRANCH   1  16
BRANCH   1  23
ATOM     23  C   UNL     1       4.191  -3.354   1.241  0.00  0.00    +0.000 C 
ATOM     24  H   UNL     1       3.726  -4.345   1.228  0.00  0.00    +0.000 HD
ATOM     25  H   UNL     1       3.523  -2.686   1.791  0.00  0.00    +0.000 HD
BRANCH  23  26
ATOM     26  O   UNL     1       5.413  -3.463   1.958  0.00  0.00    +0.000 OA
ATOM     27  H   UNL     1       6.099  -3.011   1.440  0.00  0.00    +0.000 HD
ENDBRANCH  23  26
ENDBRANCH   1  23
TORSDOF 8
ENDMDL
MODEL 5
REMARK VINA RESULT:    -3.952     16.342     17.675
REMARK INTER + INTRA:          -5.878
REMARK INTER:                  -5.752
REMARK INTRA:                  -0.126
REMARK UNBOUND:                -0.424
REMARK  Name = 7720
REMARK  8 active torsions:
REMARK  status: ('A' for Active; 'I' for Inactive)
REMARK    1  A    between atoms: O_1  and  C_6
REMARK    2  A    between atoms: C_2  and  C_3
REMARK    3  A    between atoms: C_2  and  C_5
REMARK    4  A    between atoms: C_2  and  C_6
REMARK    5  A    between atoms: C_3  and  C_4
REMARK    6  A    between atoms: C_4  and  C_7
REMARK    7  A    between atoms: C_5  and  C_8
REMARK    8  A    between atoms: C_7  and  C_9
REMARK                            x       y       z     vdW  Elec       q    Type
REMARK                         _______ _______ _______ _____ _____    ______ ____
ROOT
ATOM      1  C   UNL     1       8.137  -2.603  -0.765  0.00  0.00    +0.000 C 
ATOM      2  H   UNL     1       8.732  -3.502  -0.981  0.00  0.00    +0.000 HD
ENDROOT
BRANCH   1   3
ATOM      3  C   UNL     1       6.875  -2.658  -1.651  0.00  0.00    +0.000 C 
ATOM      4  H   UNL     1       6.876  -1.793  -2.326  0.00  0.00    +0.000 HD
ATOM      5  H   UNL     1       6.906  -3.546  -2.293  0.00  0.00    +0.000 HD
BRANCH   3   6
ATOM      6  C   UNL     1       5.565  -2.644  -0.856  0.00  0.00    +0.000 C 
ATOM      7  H   UNL     1       5.539  -1.754  -0.215  0.00  0.00    +0.000 HD
ATOM      8  H   UNL     1       5.519  -3.516  -0.196  0.00  0.00    +0.000 HD
BRANCH   6   9
ATOM      9  C   UNL     1       4.319  -2.666  -1.747  0.00  0.00    +0.000 C 
ATOM     10  H   UNL     1       4.435  -1.926  -2.548  0.00  0.00    +0.000 HD
ATOM     11  H   UNL     1       4.233  -3.647  -2.227  0.00  0.00    +0.000 HD
BRANCH   9  12
ATOM     12  C   UNL     1       3.032  -2.377  -0.991  0.00  0.00    +0.000 C 
ATOM     13  H   UNL     1       3.242  -1.794  -0.089  0.00  0.00    +0.000 HD
ATOM     14  H   UNL     1       2.335  -1.805  -1.612  0.00  0.00    +0.000 HD
ATOM     15  H   UNL     1       2.539  -3.307  -0.690  0.00  0.00    +0.000 HD
ENDBRANCH   9  12
ENDBRANCH   6   9
ENDBRANCH   3   6
ENDBRANCH   1   3
BRANCH   1  16
ATOM     16  C   UNL     1       9.064  -1.402  -1.058  0.00  0.00    +0.000 C 
ATOM     17  H   UNL     1       9.757  -1.253  -0.223  0.00  0.00    +0.000 HD
ATOM     18  H   UNL     1       8.459  -0.488  -1.099  0.00  0.00    +0.000 HD
BRANCH  16  19
ATOM     19  C   UNL     1       9.862  -1.501  -2.351  0.00  0.00    +0.000 C 
ATOM     20  H   UNL     1       9.755  -0.598  -2.960  0.00  0.00    +0.000 HD
ATOM     21  H   UNL     1       9.498  -2.344  -2.947  0.00  0.00    +0.000 HD
ATOM     22  H   UNL     1      10.924  -1.670  -2.160  0.00  0.00    +0.000 HD
ENDBRANCH  16  19
ENDBRANCH   1  16
BRANCH   1  23
ATOM     23  C   UNL     1       7.724  -2.677   0.715  0.00  0.00    +0.000 C 
ATOM     24  H   UNL     1       8.298  -3.447   1.241  0.00  0.00    +0.000 HD
ATOM     25  H   UNL     1       6.665  -2.918   0.834  0.00  0.00    +0.000 HD
BRANCH  23  26
ATOM     26  O   UNL     1       7.982  -1.438   1.360  0.00  0.00    +0.000 OA
ATOM     27  H   UNL     1       8.875  -1.153   1.104  0.00  0.00    +0.000 HD
ENDBRANCH  23  26
ENDBRANCH   1  23
TORSDOF 8
ENDMDL
MODEL 6
REMARK VINA RESULT:    -3.735      1.668      2.277
REMARK INTER + INTRA:          -5.579
REMARK INTER:                  -5.118
REMARK INTRA:                  -0.461
REMARK UNBOUND:                -0.424
REMARK  Name = 7720
REMARK  8 active torsions:
REMARK  status: ('A' for Active; 'I' for Inactive)
REMARK    1  A    between atoms: O_1  and  C_6
REMARK    2  A    between atoms: C_2  and  C_3
REMARK    3  A    between atoms: C_2  and  C_5
REMARK    4  A    between atoms: C_2  and  C_6
REMARK    5  A    between atoms: C_3  and  C_4
REMARK    6  A    between atoms: C_4  and  C_7
REMARK    7  A    between atoms: C_5  and  C_8
REMARK    8  A    between atoms: C_7  and  C_9
REMARK                            x       y       z     vdW  Elec       q    Type
REMARK                         _______ _______ _______ _____ _____    ______ ____
ROOT
ATOM      1  C   UNL     1       1.665  -5.600  15.948  0.00  0.00    +0.000 C 
ATOM      2  H   UNL     1       1.707  -5.751  17.037  0.00  0.00    +0.000 HD
ENDROOT
BRANCH   1   3
ATOM      3  C   UNL     1       0.221  -5.900  15.494  0.00  0.00    +0.000 C 
ATOM      4  H   UNL     1      -0.177  -5.023  14.967  0.00  0.00    +0.000 HD
ATOM      5  H   UNL     1       0.219  -6.720  14.766  0.00  0.00    +0.000 HD
BRANCH   3   6
ATOM      6  C   UNL     1      -0.729  -6.236  16.648  0.00  0.00    +0.000 C 
ATOM      7  H   UNL     1      -1.642  -6.693  16.246  0.00  0.00    +0.000 HD
ATOM      8  H   UNL     1      -1.031  -5.318  17.163  0.00  0.00    +0.000 HD
BRANCH   6   9
ATOM      9  C   UNL     1      -0.107  -7.173  17.688  0.00  0.00    +0.000 C 
ATOM     10  H   UNL     1       0.951  -6.917  17.818  0.00  0.00    +0.000 HD
ATOM     11  H   UNL     1      -0.596  -7.016  18.656  0.00  0.00    +0.000 HD
BRANCH   9  12
ATOM     12  C   UNL     1      -0.217  -8.643  17.318  0.00  0.00    +0.000 C 
ATOM     13  H   UNL     1       0.308  -8.839  16.377  0.00  0.00    +0.000 HD
ATOM     14  H   UNL     1       0.226  -9.275  18.094  0.00  0.00    +0.000 HD
ATOM     15  H   UNL     1      -1.264  -8.937  17.192  0.00  0.00    +0.000 HD
ENDBRANCH   9  12
ENDBRANCH   6   9
ENDBRANCH   3   6
ENDBRANCH   1   3
BRANCH   1  16
ATOM     16  C   UNL     1       2.727  -6.548  15.348  0.00  0.00    +0.000 C 
ATOM     17  H   UNL     1       3.215  -7.115  16.148  0.00  0.00    +0.000 HD
ATOM     18  H   UNL     1       3.523  -5.948  14.892  0.00  0.00    +0.000 HD
BRANCH  16  19
ATOM     19  C   UNL     1       2.206  -7.521  14.299  0.00  0.00    +0.000 C 
ATOM     20  H   UNL     1       3.023  -8.062  13.812  0.00  0.00    +0.000 HD
ATOM     21  H   UNL     1       1.666  -6.972  13.521  0.00  0.00    +0.000 HD
ATOM     22  H   UNL     1       1.513  -8.248  14.729  0.00  0.00    +0.000 HD
ENDBRANCH  16  19
ENDBRANCH   1  16
BRANCH   1  23
ATOM     23  C   UNL     1       1.985  -4.119  15.684  0.00  0.00    +0.000 C 
ATOM     24  H   UNL     1       2.999  -3.874  16.014  0.00  0.00    +0.000 HD
ATOM     25  H   UNL     1       1.298  -3.450  16.210  0.00  0.00    +0.000 HD
BRANCH  23  26
ATOM     26  O   UNL     1       1.910  -3.841  14.292  0.00  0.00    +0.000 OA
ATOM     27  H   UNL     1       1.634  -2.915  14.192  0.00  0.00    +0.000 HD
ENDBRANCH  23  26
ENDBRANCH   1  23
TORSDOF 8
ENDMDL
MODEL 7
REMARK VINA RESULT:    -3.685     21.193     21.861
REMARK INTER + INTRA:          -5.510
REMARK INTER:                  -5.397
REMARK INTRA:                  -0.113
REMARK UNBOUND:                -0.424
REMARK  Name = 7720
REMARK  8 active torsions:
REMARK  status: ('A' for Active; 'I' for Inactive)
REMARK    1  A    between atoms: O_1  and  C_6
REMARK    2  A    between atoms: C_2  and  C_3
REMARK    3  A    between atoms: C_2  and  C_5
REMARK    4  A    between atoms: C_2  and  C_6
REMARK    5  A    between atoms: C_3  and  C_4
REMARK    6  A    between atoms: C_4  and  C_7
REMARK    7  A    between atoms: C_5  and  C_8
REMARK    8  A    between atoms: C_7  and  C_9
REMARK                            x       y       z     vdW  Elec       q    Type
REMARK                         _______ _______ _______ _____ _____    ______ ____
ROOT
ATOM      1  C   UNL     1      11.959  -9.856  -3.764  0.00  0.00    +0.000 C 
ATOM      2  H   UNL     1      11.234 -10.633  -4.046  0.00  0.00    +0.000 HD
ENDROOT
BRANCH   1   3
ATOM      3  C   UNL     1      11.463  -9.212  -2.452  0.00  0.00    +0.000 C 
ATOM      4  H   UNL     1      12.330  -8.962  -1.827  0.00  0.00    +0.000 HD
ATOM      5  H   UNL     1      10.957  -8.263  -2.667  0.00  0.00    +0.000 HD
BRANCH   3   6
ATOM      6  C   UNL     1      10.532 -10.117  -1.638  0.00  0.00    +0.000 C 
ATOM      7  H   UNL     1      11.126 -10.701  -0.924  0.00  0.00    +0.000 HD
ATOM      8  H   UNL     1      10.033 -10.833  -2.300  0.00  0.00    +0.000 HD
BRANCH   6   9
ATOM      9  C   UNL     1       9.447  -9.344  -0.883  0.00  0.00    +0.000 C 
ATOM     10  H   UNL     1       9.886  -8.882   0.010  0.00  0.00    +0.000 HD
ATOM     11  H   UNL     1       9.077  -8.528  -1.515  0.00  0.00    +0.000 HD
BRANCH   9  12
ATOM     12  C   UNL     1       8.270 -10.209  -0.463  0.00  0.00    +0.000 C 
ATOM     13  H   UNL     1       7.328  -9.749  -0.779  0.00  0.00    +0.000 HD
ATOM     14  H   UNL     1       8.333 -11.203  -0.916  0.00  0.00    +0.000 HD
ATOM     15  H   UNL     1       8.243 -10.329   0.625  0.00  0.00    +0.000 HD
ENDBRANCH   9  12
ENDBRANCH   6   9
ENDBRANCH   3   6
ENDBRANCH   1   3
BRANCH   1  16
ATOM     16  C   UNL     1      12.021  -8.882  -4.962  0.00  0.00    +0.000 C 
ATOM     17  H   UNL     1      13.058  -8.578  -5.142  0.00  0.00    +0.000 HD
ATOM     18  H   UNL     1      11.491  -7.958  -4.698  0.00  0.00    +0.000 HD
BRANCH  16  19
ATOM     19  C   UNL     1      11.429  -9.414  -6.260  0.00  0.00    +0.000 C 
ATOM     20  H   UNL     1      10.726 -10.232  -6.076  0.00  0.00    +0.000 HD
ATOM     21  H   UNL     1      12.228  -9.804  -6.898  0.00  0.00    +0.000 HD
ATOM     22  H   UNL     1      10.914  -8.630  -6.821  0.00  0.00    +0.000 HD
ENDBRANCH  16  19
ENDBRANCH   1  16
BRANCH   1  23
ATOM     23  C   UNL     1      13.303 -10.559  -3.510  0.00  0.00    +0.000 C 
ATOM     24  H   UNL     1      13.769 -10.861  -4.454  0.00  0.00    +0.000 HD
ATOM     25  H   UNL     1      13.186 -11.458  -2.900  0.00  0.00    +0.000 HD
BRANCH  23  26
ATOM     26  O   UNL     1      14.202  -9.678  -2.851  0.00  0.00    +0.000 OA
ATOM     27  H   UNL     1      14.104  -8.800  -3.258  0.00  0.00    +0.000 HD
ENDBRANCH  23  26
ENDBRANCH   1  23
TORSDOF 8
ENDMDL
MODEL 8
REMARK VINA RESULT:    -3.677     17.674     18.549
REMARK INTER + INTRA:          -5.499
REMARK INTER:                  -5.308
REMARK INTRA:                  -0.191
REMARK UNBOUND:                -0.424
REMARK  Name = 7720
REMARK  8 active torsions:
REMARK  status: ('A' for Active; 'I' for Inactive)
REMARK    1  A    between atoms: O_1  and  C_6
REMARK    2  A    between atoms: C_2  and  C_3
REMARK    3  A    between atoms: C_2  and  C_5
REMARK    4  A    between atoms: C_2  and  C_6
REMARK    5  A    between atoms: C_3  and  C_4
REMARK    6  A    between atoms: C_4  and  C_7
REMARK    7  A    between atoms: C_5  and  C_8
REMARK    8  A    between atoms: C_7  and  C_9
REMARK                            x       y       z     vdW  Elec       q    Type
REMARK                         _______ _______ _______ _____ _____    ______ ____
ROOT
ATOM      1  C   UNL     1     -10.393 -16.415   7.726  0.00  0.00    +0.000 C 
ATOM      2  H   UNL     1     -10.776 -16.899   6.816  0.00  0.00    +0.000 HD
ENDROOT
BRANCH   1   3
ATOM      3  C   UNL     1     -11.590 -16.205   8.678  0.00  0.00    +0.000 C 
ATOM      4  H   UNL     1     -12.348 -16.970   8.471  0.00  0.00    +0.000 HD
ATOM      5  H   UNL     1     -11.275 -16.361   9.717  0.00  0.00    +0.000 HD
BRANCH   3   6
ATOM      6  C   UNL     1     -12.249 -14.828   8.542  0.00  0.00    +0.000 C 
ATOM      7  H   UNL     1     -12.215 -14.512   7.492  0.00  0.00    +0.000 HD
ATOM      8  H   UNL     1     -11.686 -14.087   9.119  0.00  0.00    +0.000 HD
BRANCH   6   9
ATOM      9  C   UNL     1     -13.698 -14.803   9.035  0.00  0.00    +0.000 C 
ATOM     10  H   UNL     1     -14.313 -14.243   8.320  0.00  0.00    +0.000 HD
ATOM     11  H   UNL     1     -14.091 -15.826   9.062  0.00  0.00    +0.000 HD
BRANCH   9  12
ATOM     12  C   UNL     1     -13.857 -14.182  10.414  0.00  0.00    +0.000 C 
ATOM     13  H   UNL     1     -14.878 -13.810  10.549  0.00  0.00    +0.000 HD
ATOM     14  H   UNL     1     -13.655 -14.917  11.199  0.00  0.00    +0.000 HD
ATOM     15  H   UNL     1     -13.168 -13.342  10.545  0.00  0.00    +0.000 HD
ENDBRANCH   9  12
ENDBRANCH   6   9
ENDBRANCH   3   6
ENDBRANCH   1   3
BRANCH   1  16
ATOM     16  C   UNL     1      -9.721 -15.106   7.258  0.00  0.00    +0.000 C 
ATOM     17  H   UNL     1      -8.841 -14.896   7.876  0.00  0.00    +0.000 HD
ATOM     18  H   UNL     1     -10.407 -14.269   7.437  0.00  0.00    +0.000 HD
BRANCH  16  19
ATOM     19  C   UNL     1      -9.312 -15.077   5.791  0.00  0.00    +0.000 C 
ATOM     20  H   UNL     1      -8.794 -14.148   5.536  0.00  0.00    +0.000 HD
ATOM     21  H   UNL     1     -10.202 -15.142   5.157  0.00  0.00    +0.000 HD
ATOM     22  H   UNL     1      -8.665 -15.919   5.534  0.00  0.00    +0.000 HD
ENDBRANCH  16  19
ENDBRANCH   1  16
BRANCH   1  23
ATOM     23  C   UNL     1      -9.393 -17.389   8.372  0.00  0.00    +0.000 C 
ATOM     24  H   UNL     1      -8.915 -18.016   7.613  0.00  0.00    +0.000 HD
ATOM     25  H   UNL     1      -9.876 -18.055   9.091  0.00  0.00    +0.000 HD
BRANCH  23  26
ATOM     26  O   UNL     1      -8.367 -16.668   9.040  0.00  0.00    +0.000 OA
ATOM     27  H   UNL     1      -8.274 -15.809   8.595  0.00  0.00    +0.000 HD
ENDBRANCH  23  26
ENDBRANCH   1  23
TORSDOF 8
ENDMDL
MODEL 9
REMARK VINA RESULT:    -3.670     15.291     17.413
REMARK INTER + INTRA:          -5.489
REMARK INTER:                  -5.289
REMARK INTRA:                  -0.200
REMARK UNBOUND:                -0.424
REMARK  Name = 7720
REMARK  8 active torsions:
REMARK  status: ('A' for Active; 'I' for Inactive)
REMARK    1  A    between atoms: O_1  and  C_6
REMARK    2  A    between atoms: C_2  and  C_3
REMARK    3  A    between atoms: C_2  and  C_5
REMARK    4  A    between atoms: C_2  and  C_6
REMARK    5  A    between atoms: C_3  and  C_4
REMARK    6  A    between atoms: C_4  and  C_7
REMARK    7  A    between atoms: C_5  and  C_8
REMARK    8  A    between atoms: C_7  and  C_9
REMARK                            x       y       z     vdW  Elec       q    Type
REMARK                         _______ _______ _______ _____ _____    ______ ____
ROOT
ATOM      1  C   UNL     1      -9.496 -15.285   7.351  0.00  0.00    +0.000 C 
ATOM      2  H   UNL     1      -9.103 -14.528   8.046  0.00  0.00    +0.000 HD
ENDROOT
BRANCH   1   3
ATOM      3  C   UNL     1      -8.658 -15.206   6.058  0.00  0.00    +0.000 C 
ATOM      4  H   UNL     1      -7.908 -16.008   6.070  0.00  0.00    +0.000 HD
ATOM      5  H   UNL     1      -9.294 -15.397   5.186  0.00  0.00    +0.000 HD
BRANCH   3   6
ATOM      6  C   UNL     1      -7.927 -13.871   5.879  0.00  0.00    +0.000 C 
ATOM      7  H   UNL     1      -8.648 -13.048   5.968  0.00  0.00    +0.000 HD
ATOM      8  H   UNL     1      -7.497 -13.813   4.874  0.00  0.00    +0.000 HD
BRANCH   6   9
ATOM      9  C   UNL     1      -6.793 -13.665   6.887  0.00  0.00    +0.000 C 
ATOM     10  H   UNL     1      -6.966 -12.736   7.442  0.00  0.00    +0.000 HD
ATOM     11  H   UNL     1      -6.804 -14.481   7.618  0.00  0.00    +0.000 HD
BRANCH   9  12
ATOM     12  C   UNL     1      -5.416 -13.605   6.243  0.00  0.00    +0.000 C 
ATOM     13  H   UNL     1      -5.098 -14.605   5.931  0.00  0.00    +0.000 HD
ATOM     14  H   UNL     1      -5.426 -12.959   5.360  0.00  0.00    +0.000 HD
ATOM     15  H   UNL     1      -4.674 -13.215   6.946  0.00  0.00    +0.000 HD
ENDBRANCH   9  12
ENDBRANCH   6   9
ENDBRANCH   3   6
ENDBRANCH   1   3
BRANCH   1  16
ATOM     16  C   UNL     1     -10.991 -14.946   7.158  0.00  0.00    +0.000 C 
ATOM     17  H   UNL     1     -11.423 -15.593   6.386  0.00  0.00    +0.000 HD
ATOM     18  H   UNL     1     -11.076 -13.927   6.761  0.00  0.00    +0.000 HD
BRANCH  16  19
ATOM     19  C   UNL     1     -11.844 -15.039   8.415  0.00  0.00    +0.000 C 
ATOM     20  H   UNL     1     -12.908 -15.122   8.175  0.00  0.00    +0.000 HD
ATOM     21  H   UNL     1     -11.712 -14.136   9.020  0.00  0.00    +0.000 HD
ATOM     22  H   UNL     1     -11.559 -15.893   9.036  0.00  0.00    +0.000 HD
ENDBRANCH  16  19
ENDBRANCH   1  16
BRANCH   1  23
ATOM     23  C   UNL     1      -9.287 -16.658   8.011  0.00  0.00    +0.000 C 
ATOM     24  H   UNL     1      -8.942 -17.395   7.278  0.00  0.00    +0.000 HD
ATOM     25  H   UNL     1     -10.207 -17.044   8.456  0.00  0.00    +0.000 HD
BRANCH  23  26
ATOM     26  O   UNL     1      -8.296 -16.570   9.026  0.00  0.00    +0.000 OA
ATOM     27  H   UNL     1      -7.453 -16.349   8.595  0.00  0.00    +0.000 HD
ENDBRANCH  23  26
ENDBRANCH   1  23
TORSDOF 8
ENDMDL
MODEL 10
REMARK VINA RESULT:    -3.613     15.350     16.804
REMARK INTER + INTRA:          -5.410
REMARK INTER:                  -4.986
REMARK INTRA:                  -0.424
REMARK UNBOUND:                -0.424
REMARK  Name = 7720
REMARK  8 active torsions:
REMARK  status: ('A' for Active; 'I' for Inactive)
REMARK    1  A    between atoms: O_1  and  C_6
REMARK    2  A    between atoms: C_2  and  C_3
REMARK    3  A    between atoms: C_2  and  C_5
REMARK    4  A    between atoms: C_2  and  C_6
REMARK    5  A    between atoms: C_3  and  C_4
REMARK    6  A    between atoms: C_4  and  C_7
REMARK    7  A    between atoms: C_5  and  C_8
REMARK    8  A    between atoms: C_7  and  C_9
REMARK                            x       y       z     vdW  Elec       q    Type
REMARK                         _______ _______ _______ _____ _____    ______ ____
ROOT
ATOM      1  C   UNL     1       4.814  -3.676  -0.631  0.00  0.00    +0.000 C 
ATOM      2  H   UNL     1       4.524  -4.615  -1.125  0.00  0.00    +0.000 HD
ENDROOT
BRANCH   1   3
ATOM      3  C   UNL     1       6.356  -3.624  -0.602  0.00  0.00    +0.000 C 
ATOM      4  H   UNL     1       6.693  -3.649   0.442  0.00  0.00    +0.000 HD
ATOM      5  H   UNL     1       6.771  -4.521  -1.078  0.00  0.00    +0.000 HD
BRANCH   3   6
ATOM      6  C   UNL     1       6.941  -2.372  -1.264  0.00  0.00    +0.000 C 
ATOM      7  H   UNL     1       6.156  -1.865  -1.839  0.00  0.00    +0.000 HD
ATOM      8  H   UNL     1       7.724  -2.657  -1.974  0.00  0.00    +0.000 HD
BRANCH   6   9
ATOM      9  C   UNL     1       7.553  -1.390  -0.262  0.00  0.00    +0.000 C 
ATOM     10  H   UNL     1       8.138  -0.637  -0.803  0.00  0.00    +0.000 HD
ATOM     11  H   UNL     1       6.751  -0.857   0.261  0.00  0.00    +0.000 HD
BRANCH   9  12
ATOM     12  C   UNL     1       8.447  -2.060   0.770  0.00  0.00    +0.000 C 
ATOM     13  H   UNL     1       8.394  -3.148   0.671  0.00  0.00    +0.000 HD
ATOM     14  H   UNL     1       9.490  -1.756   0.640  0.00  0.00    +0.000 HD
ATOM     15  H   UNL     1       8.137  -1.794   1.786  0.00  0.00    +0.000 HD
ENDBRANCH   9  12
ENDBRANCH   6   9
ENDBRANCH   3   6
ENDBRANCH   1   3
BRANCH   1  16
ATOM     16  C   UNL     1       4.156  -3.713   0.766  0.00  0.00    +0.000 C 
ATOM     17  H   UNL     1       3.617  -4.658   0.900  0.00  0.00    +0.000 HD
ATOM     18  H   UNL     1       3.387  -2.932   0.819  0.00  0.00    +0.000 HD
BRANCH  16  19
ATOM     19  C   UNL     1       5.110  -3.519   1.936  0.00  0.00    +0.000 C 
ATOM     20  H   UNL     1       5.713  -2.614   1.818  0.00  0.00    +0.000 HD
ATOM     21  H   UNL     1       5.800  -4.367   1.996  0.00  0.00    +0.000 HD
ATOM     22  H   UNL     1       4.578  -3.463   2.889  0.00  0.00    +0.000 HD
ENDBRANCH  16  19
ENDBRANCH   1  16
BRANCH   1  23
ATOM     23  C   UNL     1       4.281  -2.525  -1.500  0.00  0.00    +0.000 C 
ATOM     24  H   UNL     1       4.168  -2.842  -2.542  0.00  0.00    +0.000 HD
ATOM     25  H   UNL     1       4.951  -1.660  -1.491  0.00  0.00    +0.000 HD
BRANCH  23  26
ATOM     26  O   UNL     1       3.003  -2.111  -1.038  0.00  0.00    +0.000 OA
ATOM     27  H   UNL     1       2.653  -2.818  -0.470  0.00  0.00    +0.000 HD
ENDBRANCH  23  26
ENDBRANCH   1  23
TORSDOF 8
ENDMDL
