MODEL 1
REMARK VINA RESULT:    -4.030      0.000      0.000
REMARK INTER + INTRA:          -5.368
REMARK INTER:                  -5.244
REMARK INTRA:                  -0.124
REMARK UNBOUND:                -0.160
REMARK  Name = 8051
REMARK  6 active torsions:
REMARK  status: ('A' for Active; 'I' for Inactive)
REMARK    1  A    between atoms: C_2  and  C_3
REMARK    2  A    between atoms: C_2  and  C_4
REMARK    3  A    between atoms: C_3  and  C_5
REMARK    4  A    between atoms: C_4  and  C_6
REMARK    5  A    between atoms: C_5  and  C_7
REMARK    6  A    between atoms: C_7  and  C_8
REMARK                            x       y       z     vdW  Elec       q    Type
REMARK                         _______ _______ _______ _____ _____    ______ ____
ROOT
ATOM      1  C   UNL     1       0.555  -4.778  15.882  0.00  0.00    +0.000 C 
ATOM      2  H   UNL     1       0.235  -4.805  16.931  0.00  0.00    +0.000 HD
ATOM      3  H   UNL     1      -0.093  -4.049  15.377  0.00  0.00    +0.000 HD
ENDROOT
BRANCH   1   4
ATOM      4  C   UNL     1       2.008  -4.301  15.803  0.00  0.00    +0.000 C 
ATOM      5  H   UNL     1       2.430  -4.242  16.813  0.00  0.00    +0.000 HD
ATOM      6  H   UNL     1       2.602  -5.035  15.245  0.00  0.00    +0.000 HD
BRANCH   4   7
ATOM      7  C   UNL     1       2.106  -2.936  15.121  0.00  0.00    +0.000 C 
ATOM      8  H   UNL     1       1.482  -2.923  14.220  0.00  0.00    +0.000 HD
ATOM      9  H   UNL     1       1.725  -2.157  15.791  0.00  0.00    +0.000 HD
BRANCH   7  10
ATOM     10  C   UNL     1       3.540  -2.608  14.736  0.00  0.00    +0.000 C 
ATOM     11  H   UNL     1       4.232  -3.369  15.114  0.00  0.00    +0.000 HD
ATOM     12  H   UNL     1       3.640  -2.569  13.647  0.00  0.00    +0.000 HD
ATOM     13  H   UNL     1       3.842  -1.637  15.140  0.00  0.00    +0.000 HD
ENDBRANCH   7  10
ENDBRANCH   4   7
ENDBRANCH   1   4
BRANCH   1  14
ATOM     14  C   UNL     1       0.356  -6.153  15.253  0.00  0.00    +0.000 C 
ATOM     15  H   UNL     1       1.094  -6.311  14.460  0.00  0.00    +0.000 HD
ATOM     16  H   UNL     1      -0.646  -6.218  14.814  0.00  0.00    +0.000 HD
BRANCH  14  18
ATOM     17  O   UNL     1       1.283  -8.210  16.064  0.00  0.00    +0.000 OA
ATOM     18  C   UNL     1       0.493  -7.286  16.252  0.00  0.00    +0.000 C 
BRANCH  18  19
ATOM     19  C   UNL     1      -0.361  -7.228  17.491  0.00  0.00    +0.000 C 
ATOM     20  H   UNL     1       0.233  -7.526  18.359  0.00  0.00    +0.000 HD
ATOM     21  H   UNL     1      -0.742  -6.212  17.626  0.00  0.00    +0.000 HD
ATOM     22  H   UNL     1      -1.208  -7.911  17.389  0.00  0.00    +0.000 HD
ENDBRANCH  18  19
ENDBRANCH  14  18
ENDBRANCH   1  14
TORSDOF 6
ENDMDL
MODEL 2
REMARK VINA RESULT:    -3.970      1.596      4.418
REMARK INTER + INTRA:          -5.290
REMARK INTER:                  -5.184
REMARK INTRA:                  -0.106
REMARK UNBOUND:                -0.160
REMARK  Name = 8051
REMARK  6 active torsions:
REMARK  status: ('A' for Active; 'I' for Inactive)
REMARK    1  A    between atoms: C_2  and  C_3
REMARK    2  A    between atoms: C_2  and  C_4
REMARK    3  A    between atoms: C_3  and  C_5
REMARK    4  A    between atoms: C_4  and  C_6
REMARK    5  A    between atoms: C_5  and  C_7
REMARK    6  A    between atoms: C_7  and  C_8
REMARK                            x       y       z     vdW  Elec       q    Type
REMARK                         _______ _______ _______ _____ _____    ______ ____
ROOT
ATOM      1  C   UNL     1       0.172  -5.874  15.573  0.00  0.00    +0.000 C 
ATOM      2  H   UNL     1       0.931  -6.660  15.477  0.00  0.00    +0.000 HD
ATOM      3  H   UNL     1      -0.360  -5.833  14.613  0.00  0.00    +0.000 HD
ENDROOT
BRANCH   1   4
ATOM      4  C   UNL     1      -0.818  -6.251  16.680  0.00  0.00    +0.000 C 
ATOM      5  H   UNL     1      -1.047  -5.365  17.284  0.00  0.00    +0.000 HD
ATOM      6  H   UNL     1      -1.758  -6.589  16.229  0.00  0.00    +0.000 HD
BRANCH   4   7
ATOM      7  C   UNL     1      -0.252  -7.353  17.576  0.00  0.00    +0.000 C 
ATOM      8  H   UNL     1       0.295  -6.908  18.415  0.00  0.00    +0.000 HD
ATOM      9  H   UNL     1      -1.071  -7.945  17.999  0.00  0.00    +0.000 HD
BRANCH   7  10
ATOM     10  C   UNL     1       0.683  -8.271  16.805  0.00  0.00    +0.000 C 
ATOM     11  H   UNL     1       1.614  -7.755  16.547  0.00  0.00    +0.000 HD
ATOM     12  H   UNL     1       0.937  -9.147  17.410  0.00  0.00    +0.000 HD
ATOM     13  H   UNL     1       0.215  -8.621  15.880  0.00  0.00    +0.000 HD
ENDBRANCH   7  10
ENDBRANCH   4   7
ENDBRANCH   1   4
BRANCH   1  14
ATOM     14  C   UNL     1       0.855  -4.535  15.831  0.00  0.00    +0.000 C 
ATOM     15  H   UNL     1       1.301  -4.530  16.832  0.00  0.00    +0.000 HD
ATOM     16  H   UNL     1       0.119  -3.726  15.775  0.00  0.00    +0.000 HD
BRANCH  14  18
ATOM     17  O   UNL     1       2.249  -5.029  13.943  0.00  0.00    +0.000 OA
ATOM     18  C   UNL     1       1.951  -4.228  14.830  0.00  0.00    +0.000 C 
BRANCH  18  19
ATOM     19  C   UNL     1       2.650  -2.899  14.948  0.00  0.00    +0.000 C 
ATOM     20  H   UNL     1       2.038  -2.216  15.542  0.00  0.00    +0.000 HD
ATOM     21  H   UNL     1       3.625  -3.039  15.421  0.00  0.00    +0.000 HD
ATOM     22  H   UNL     1       2.799  -2.470  13.953  0.00  0.00    +0.000 HD
ENDBRANCH  18  19
ENDBRANCH  14  18
ENDBRANCH   1  14
TORSDOF 6
ENDMDL
MODEL 3
REMARK VINA RESULT:    -3.826     19.808     20.863
REMARK INTER + INTRA:          -5.104
REMARK INTER:                  -4.979
REMARK INTRA:                  -0.125
REMARK UNBOUND:                -0.160
REMARK  Name = 8051
REMARK  6 active torsions:
REMARK  status: ('A' for Active; 'I' for Inactive)
REMARK    1  A    between atoms: C_2  and  C_3
REMARK    2  A    between atoms: C_2  and  C_4
REMARK    3  A    between atoms: C_3  and  C_5
REMARK    4  A    between atoms: C_4  and  C_6
REMARK    5  A    between atoms: C_5  and  C_7
REMARK    6  A    between atoms: C_7  and  C_8
REMARK                            x       y       z     vdW  Elec       q    Type
REMARK                         _______ _______ _______ _____ _____    ______ ____
ROOT
ATOM      1  C   UNL     1      11.093  -9.989  -2.059  0.00  0.00    +0.000 C 
ATOM      2  H   UNL     1      10.301 -10.328  -2.738  0.00  0.00    +0.000 HD
ATOM      3  H   UNL     1      11.308 -10.829  -1.385  0.00  0.00    +0.000 HD
ENDROOT
BRANCH   1   4
ATOM      4  C   UNL     1      12.352  -9.658  -2.867  0.00  0.00    +0.000 C 
ATOM      5  H   UNL     1      12.570  -8.586  -2.784  0.00  0.00    +0.000 HD
ATOM      6  H   UNL     1      13.208 -10.197  -2.444  0.00  0.00    +0.000 HD
BRANCH   4   7
ATOM      7  C   UNL     1      12.181 -10.037  -4.338  0.00  0.00    +0.000 C 
ATOM      8  H   UNL     1      13.043 -10.627  -4.674  0.00  0.00    +0.000 HD
ATOM      9  H   UNL     1      11.291 -10.664  -4.460  0.00  0.00    +0.000 HD
BRANCH   7  10
ATOM     10  C   UNL     1      12.051  -8.805  -5.219  0.00  0.00    +0.000 C 
ATOM     11  H   UNL     1      11.507  -8.008  -4.702  0.00  0.00    +0.000 HD
ATOM     12  H   UNL     1      13.041  -8.423  -5.485  0.00  0.00    +0.000 HD
ATOM     13  H   UNL     1      11.518  -9.040  -6.146  0.00  0.00    +0.000 HD
ENDBRANCH   7  10
ENDBRANCH   4   7
ENDBRANCH   1   4
BRANCH   1  14
ATOM     14  C   UNL     1      10.592  -8.801  -1.245  0.00  0.00    +0.000 C 
ATOM     15  H   UNL     1      10.644  -7.887  -1.847  0.00  0.00    +0.000 HD
ATOM     16  H   UNL     1      11.220  -8.669  -0.357  0.00  0.00    +0.000 HD
BRANCH  14  18
ATOM     17  O   UNL     1       8.462  -7.994  -0.494  0.00  0.00    +0.000 OA
ATOM     18  C   UNL     1       9.161  -8.969  -0.773  0.00  0.00    +0.000 C 
BRANCH  18  19
ATOM     19  C   UNL     1       8.620 -10.370  -0.676  0.00  0.00    +0.000 C 
ATOM     20  H   UNL     1       8.395 -10.746  -1.678  0.00  0.00    +0.000 HD
ATOM     21  H   UNL     1       9.356 -11.014  -0.189  0.00  0.00    +0.000 HD
ATOM     22  H   UNL     1       7.702 -10.373  -0.082  0.00  0.00    +0.000 HD
ENDBRANCH  18  19
ENDBRANCH  14  18
ENDBRANCH   1  14
TORSDOF 6
ENDMDL
MODEL 4
REMARK VINA RESULT:    -3.713     16.417     17.042
REMARK INTER + INTRA:          -4.959
REMARK INTER:                  -4.810
REMARK INTRA:                  -0.149
REMARK UNBOUND:                -0.160
REMARK  Name = 8051
REMARK  6 active torsions:
REMARK  status: ('A' for Active; 'I' for Inactive)
REMARK    1  A    between atoms: C_2  and  C_3
REMARK    2  A    between atoms: C_2  and  C_4
REMARK    3  A    between atoms: C_3  and  C_5
REMARK    4  A    between atoms: C_4  and  C_6
REMARK    5  A    between atoms: C_5  and  C_7
REMARK    6  A    between atoms: C_7  and  C_8
REMARK                            x       y       z     vdW  Elec       q    Type
REMARK                         _______ _______ _______ _____ _____    ______ ____
ROOT
ATOM      1  C   UNL     1      -0.758  11.729  11.380  0.00  0.00    +0.000 C 
ATOM      2  H   UNL     1      -1.082  12.423  12.166  0.00  0.00    +0.000 HD
ATOM      3  H   UNL     1      -1.152  12.123  10.434  0.00  0.00    +0.000 HD
ENDROOT
BRANCH   1   4
ATOM      4  C   UNL     1       0.772  11.706  11.318  0.00  0.00    +0.000 C 
ATOM      5  H   UNL     1       1.103  11.992  10.313  0.00  0.00    +0.000 HD
ATOM      6  H   UNL     1       1.177  12.449  12.017  0.00  0.00    +0.000 HD
BRANCH   4   7
ATOM      7  C   UNL     1       1.319  10.321  11.668  0.00  0.00    +0.000 C 
ATOM      8  H   UNL     1       1.023  10.050  12.688  0.00  0.00    +0.000 HD
ATOM      9  H   UNL     1       0.890   9.571  10.995  0.00  0.00    +0.000 HD
BRANCH   7  10
ATOM     10  C   UNL     1       2.835  10.280  11.564  0.00  0.00    +0.000 C 
ATOM     11  H   UNL     1       3.174   9.325  11.148  0.00  0.00    +0.000 HD
ATOM     12  H   UNL     1       3.192  11.081  10.911  0.00  0.00    +0.000 HD
ATOM     13  H   UNL     1       3.299  10.411  12.547  0.00  0.00    +0.000 HD
ENDBRANCH   7  10
ENDBRANCH   4   7
ENDBRANCH   1   4
BRANCH   1  14
ATOM     14  C   UNL     1      -1.353  10.350  11.642  0.00  0.00    +0.000 C 
ATOM     15  H   UNL     1      -1.044   9.990  12.629  0.00  0.00    +0.000 HD
ATOM     16  H   UNL     1      -0.995   9.642  10.886  0.00  0.00    +0.000 HD
BRANCH  14  18
ATOM     17  O   UNL     1      -3.524   9.555  12.280  0.00  0.00    +0.000 OA
ATOM     18  C   UNL     1      -2.869  10.341  11.595  0.00  0.00    +0.000 C 
BRANCH  18  19
ATOM     19  C   UNL     1      -3.543  11.341  10.695  0.00  0.00    +0.000 C 
ATOM     20  H   UNL     1      -3.523  12.328  11.164  0.00  0.00    +0.000 HD
ATOM     21  H   UNL     1      -3.029  11.371   9.730  0.00  0.00    +0.000 HD
ATOM     22  H   UNL     1      -4.584  11.048  10.529  0.00  0.00    +0.000 HD
ENDBRANCH  18  19
ENDBRANCH  14  18
ENDBRANCH   1  14
TORSDOF 6
ENDMDL
MODEL 5
REMARK VINA RESULT:    -3.518     20.876     22.080
REMARK INTER + INTRA:          -4.706
REMARK INTER:                  -4.606
REMARK INTRA:                  -0.100
REMARK UNBOUND:                -0.160
REMARK  Name = 8051
REMARK  6 active torsions:
REMARK  status: ('A' for Active; 'I' for Inactive)
REMARK    1  A    between atoms: C_2  and  C_3
REMARK    2  A    between atoms: C_2  and  C_4
REMARK    3  A    between atoms: C_3  and  C_5
REMARK    4  A    between atoms: C_4  and  C_6
REMARK    5  A    between atoms: C_5  and  C_7
REMARK    6  A    between atoms: C_7  and  C_8
REMARK                            x       y       z     vdW  Elec       q    Type
REMARK                         _______ _______ _______ _____ _____    ______ ____
ROOT
ATOM      1  C   UNL     1      11.467 -10.123  -2.536  0.00  0.00    +0.000 C 
ATOM      2  H   UNL     1      12.125 -10.828  -2.013  0.00  0.00    +0.000 HD
ATOM      3  H   UNL     1      10.589 -10.697  -2.859  0.00  0.00    +0.000 HD
ENDROOT
BRANCH   1   4
ATOM      4  C   UNL     1      11.021  -9.024  -1.567  0.00  0.00    +0.000 C 
ATOM      5  H   UNL     1      11.902  -8.511  -1.163  0.00  0.00    +0.000 HD
ATOM      6  H   UNL     1      10.430  -8.276  -2.110  0.00  0.00    +0.000 HD
BRANCH   4   7
ATOM      7  C   UNL     1      10.190  -9.600  -0.420  0.00  0.00    +0.000 C 
ATOM      8  H   UNL     1      10.340 -10.685  -0.359  0.00  0.00    +0.000 HD
ATOM      9  H   UNL     1      10.522  -9.173   0.532  0.00  0.00    +0.000 HD
BRANCH   7  10
ATOM     10  C   UNL     1       8.709  -9.315  -0.608  0.00  0.00    +0.000 C 
ATOM     11  H   UNL     1       8.553  -8.337  -1.076  0.00  0.00    +0.000 HD
ATOM     12  H   UNL     1       8.255 -10.075  -1.252  0.00  0.00    +0.000 HD
ATOM     13  H   UNL     1       8.182  -9.325   0.351  0.00  0.00    +0.000 HD
ENDBRANCH   7  10
ENDBRANCH   4   7
ENDBRANCH   1   4
BRANCH   1  14
ATOM     14  C   UNL     1      12.187  -9.566  -3.759  0.00  0.00    +0.000 C 
ATOM     15  H   UNL     1      12.190  -8.471  -3.725  0.00  0.00    +0.000 HD
ATOM     16  H   UNL     1      11.669  -9.883  -4.671  0.00  0.00    +0.000 HD
BRANCH  14  18
ATOM     17  O   UNL     1      14.541  -9.240  -4.080  0.00  0.00    +0.000 OA
ATOM     18  C   UNL     1      13.626 -10.034  -3.863  0.00  0.00    +0.000 C 
BRANCH  18  19
ATOM     19  C   UNL     1      13.895 -11.503  -3.673  0.00  0.00    +0.000 C 
ATOM     20  H   UNL     1      12.986 -12.072  -3.887  0.00  0.00    +0.000 HD
ATOM     21  H   UNL     1      14.702 -11.817  -4.340  0.00  0.00    +0.000 HD
ATOM     22  H   UNL     1      14.198 -11.693  -2.640  0.00  0.00    +0.000 HD
ENDBRANCH  18  19
ENDBRANCH  14  18
ENDBRANCH   1  14
TORSDOF 6
ENDMDL
MODEL 6
REMARK VINA RESULT:    -3.500     23.037     25.110
REMARK INTER + INTRA:          -4.683
REMARK INTER:                  -4.572
REMARK INTRA:                  -0.111
REMARK UNBOUND:                -0.160
REMARK  Name = 8051
REMARK  6 active torsions:
REMARK  status: ('A' for Active; 'I' for Inactive)
REMARK    1  A    between atoms: C_2  and  C_3
REMARK    2  A    between atoms: C_2  and  C_4
REMARK    3  A    between atoms: C_3  and  C_5
REMARK    4  A    between atoms: C_4  and  C_6
REMARK    5  A    between atoms: C_5  and  C_7
REMARK    6  A    between atoms: C_7  and  C_8
REMARK                            x       y       z     vdW  Elec       q    Type
REMARK                         _______ _______ _______ _____ _____    ______ ____
ROOT
ATOM      1  C   UNL     1       6.420  12.129  -0.148  0.00  0.00    +0.000 C 
ATOM      2  H   UNL     1       7.241  11.412  -0.277  0.00  0.00    +0.000 HD
ATOM      3  H   UNL     1       5.488  11.559  -0.253  0.00  0.00    +0.000 HD
ENDROOT
BRANCH   1   4
ATOM      4  C   UNL     1       6.485  12.733   1.258  0.00  0.00    +0.000 C 
ATOM      5  H   UNL     1       7.530  12.798   1.582  0.00  0.00    +0.000 HD
ATOM      6  H   UNL     1       6.087  13.755   1.235  0.00  0.00    +0.000 HD
BRANCH   4   7
ATOM      7  C   UNL     1       5.687  11.895   2.258  0.00  0.00    +0.000 C 
ATOM      8  H   UNL     1       4.643  11.818   1.930  0.00  0.00    +0.000 HD
ATOM      9  H   UNL     1       6.091  10.877   2.297  0.00  0.00    +0.000 HD
BRANCH   7  10
ATOM     10  C   UNL     1       5.725  12.503   3.650  0.00  0.00    +0.000 C 
ATOM     11  H   UNL     1       6.756  12.688   3.970  0.00  0.00    +0.000 HD
ATOM     12  H   UNL     1       5.190  13.458   3.661  0.00  0.00    +0.000 HD
ATOM     13  H   UNL     1       5.252  11.840   4.381  0.00  0.00    +0.000 HD
ENDBRANCH   7  10
ENDBRANCH   4   7
ENDBRANCH   1   4
BRANCH   1  14
ATOM     14  C   UNL     1       6.493  13.189  -1.242  0.00  0.00    +0.000 C 
ATOM     15  H   UNL     1       6.810  14.146  -0.815  0.00  0.00    +0.000 HD
ATOM     16  H   UNL     1       5.504  13.321  -1.696  0.00  0.00    +0.000 HD
BRANCH  14  18
ATOM     17  O   UNL     1       7.319  13.269  -3.492  0.00  0.00    +0.000 OA
ATOM     18  C   UNL     1       7.462  12.828  -2.352  0.00  0.00    +0.000 C 
BRANCH  18  19
ATOM     19  C   UNL     1       8.615  11.925  -2.002  0.00  0.00    +0.000 C 
ATOM     20  H   UNL     1       9.395  12.504  -1.502  0.00  0.00    +0.000 HD
ATOM     21  H   UNL     1       8.265  11.121  -1.349  0.00  0.00    +0.000 HD
ATOM     22  H   UNL     1       9.028  11.484  -2.913  0.00  0.00    +0.000 HD
ENDBRANCH  18  19
ENDBRANCH  14  18
ENDBRANCH   1  14
TORSDOF 6
ENDMDL
MODEL 7
REMARK VINA RESULT:    -3.417     14.585     15.771
REMARK INTER + INTRA:          -4.576
REMARK INTER:                  -4.399
REMARK INTRA:                  -0.177
REMARK UNBOUND:                -0.160
REMARK  Name = 8051
REMARK  6 active torsions:
REMARK  status: ('A' for Active; 'I' for Inactive)
REMARK    1  A    between atoms: C_2  and  C_3
REMARK    2  A    between atoms: C_2  and  C_4
REMARK    3  A    between atoms: C_3  and  C_5
REMARK    4  A    between atoms: C_4  and  C_6
REMARK    5  A    between atoms: C_5  and  C_7
REMARK    6  A    between atoms: C_7  and  C_8
REMARK                            x       y       z     vdW  Elec       q    Type
REMARK                         _______ _______ _______ _____ _____    ______ ____
ROOT
ATOM      1  C   UNL     1      -7.279 -13.622   4.171  0.00  0.00    +0.000 C 
ATOM      2  H   UNL     1      -7.648 -12.778   4.767  0.00  0.00    +0.000 HD
ATOM      3  H   UNL     1      -8.089 -14.362   4.142  0.00  0.00    +0.000 HD
ENDROOT
BRANCH   1   4
ATOM      4  C   UNL     1      -6.979 -13.148   2.746  0.00  0.00    +0.000 C 
ATOM      5  H   UNL     1      -6.740 -14.012   2.114  0.00  0.00    +0.000 HD
ATOM      6  H   UNL     1      -7.874 -12.675   2.323  0.00  0.00    +0.000 HD
BRANCH   4   7
ATOM      7  C   UNL     1      -5.815 -12.157   2.725  0.00  0.00    +0.000 C 
ATOM      8  H   UNL     1      -6.182 -11.146   2.944  0.00  0.00    +0.000 HD
ATOM      9  H   UNL     1      -5.092 -12.416   3.506  0.00  0.00    +0.000 HD
BRANCH   7  10
ATOM     10  C   UNL     1      -5.115 -12.148   1.376  0.00  0.00    +0.000 C 
ATOM     11  H   UNL     1      -4.054 -11.902   1.485  0.00  0.00    +0.000 HD
ATOM     12  H   UNL     1      -5.190 -13.133   0.904  0.00  0.00    +0.000 HD
ATOM     13  H   UNL     1      -5.570 -11.415   0.703  0.00  0.00    +0.000 HD
ENDBRANCH   7  10
ENDBRANCH   4   7
ENDBRANCH   1   4
BRANCH   1  14
ATOM     14  C   UNL     1      -6.059 -14.232   4.853  0.00  0.00    +0.000 C 
ATOM     15  H   UNL     1      -5.162 -14.044   4.252  0.00  0.00    +0.000 HD
ATOM     16  H   UNL     1      -6.191 -15.315   4.950  0.00  0.00    +0.000 HD
BRANCH  14  18
ATOM     17  O   UNL     1      -4.690 -13.336   6.606  0.00  0.00    +0.000 OA
ATOM     18  C   UNL     1      -5.816 -13.673   6.241  0.00  0.00    +0.000 C 
BRANCH  18  19
ATOM     19  C   UNL     1      -7.007 -13.529   7.151  0.00  0.00    +0.000 C 
ATOM     20  H   UNL     1      -7.748 -14.295   6.909  0.00  0.00    +0.000 HD
ATOM     21  H   UNL     1      -6.687 -13.631   8.192  0.00  0.00    +0.000 HD
ATOM     22  H   UNL     1      -7.459 -12.543   7.017  0.00  0.00    +0.000 HD
ENDBRANCH  18  19
ENDBRANCH  14  18
ENDBRANCH   1  14
TORSDOF 6
ENDMDL
MODEL 8
REMARK VINA RESULT:    -3.388     25.407     26.203
REMARK INTER + INTRA:          -4.539
REMARK INTER:                  -4.379
REMARK INTRA:                  -0.160
REMARK UNBOUND:                -0.160
REMARK  Name = 8051
REMARK  6 active torsions:
REMARK  status: ('A' for Active; 'I' for Inactive)
REMARK    1  A    between atoms: C_2  and  C_3
REMARK    2  A    between atoms: C_2  and  C_4
REMARK    3  A    between atoms: C_3  and  C_5
REMARK    4  A    between atoms: C_4  and  C_6
REMARK    5  A    between atoms: C_5  and  C_7
REMARK    6  A    between atoms: C_7  and  C_8
REMARK                            x       y       z     vdW  Elec       q    Type
REMARK                         _______ _______ _______ _____ _____    ______ ____
ROOT
ATOM      1  C   UNL     1      -4.835  -6.406  -9.242  0.00  0.00    +0.000 C 
ATOM      2  H   UNL     1      -4.745  -5.388  -8.843  0.00  0.00    +0.000 HD
ATOM      3  H   UNL     1      -4.946  -7.073  -8.377  0.00  0.00    +0.000 HD
ENDROOT
BRANCH   1   4
ATOM      4  C   UNL     1      -6.088  -6.503 -10.117  0.00  0.00    +0.000 C 
ATOM      5  H   UNL     1      -6.033  -5.760 -10.922  0.00  0.00    +0.000 HD
ATOM      6  H   UNL     1      -6.127  -7.491 -10.590  0.00  0.00    +0.000 HD
BRANCH   4   7
ATOM      7  C   UNL     1      -7.357  -6.277  -9.293  0.00  0.00    +0.000 C 
ATOM      8  H   UNL     1      -7.998  -5.539  -9.790  0.00  0.00    +0.000 HD
ATOM      9  H   UNL     1      -7.927  -7.210  -9.225  0.00  0.00    +0.000 HD
BRANCH   7  10
ATOM     10  C   UNL     1      -7.030  -5.786  -7.892  0.00  0.00    +0.000 C 
ATOM     11  H   UNL     1      -7.782  -6.126  -7.171  0.00  0.00    +0.000 HD
ATOM     12  H   UNL     1      -6.056  -6.170  -7.574  0.00  0.00    +0.000 HD
ATOM     13  H   UNL     1      -6.992  -4.693  -7.859  0.00  0.00    +0.000 HD
ENDBRANCH   7  10
ENDBRANCH   4   7
ENDBRANCH   1   4
BRANCH   1  14
ATOM     14  C   UNL     1      -3.563  -6.768 -10.002  0.00  0.00    +0.000 C 
ATOM     15  H   UNL     1      -2.780  -6.032  -9.793  0.00  0.00    +0.000 HD
ATOM     16  H   UNL     1      -3.762  -6.767 -11.080  0.00  0.00    +0.000 HD
BRANCH  14  18
ATOM     17  O   UNL     1      -2.211  -8.282  -8.726  0.00  0.00    +0.000 OA
ATOM     18  C   UNL     1      -3.026  -8.139  -9.637  0.00  0.00    +0.000 C 
BRANCH  18  19
ATOM     19  C   UNL     1      -3.541  -9.319 -10.418  0.00  0.00    +0.000 C 
ATOM     20  H   UNL     1      -4.454  -9.037 -10.947  0.00  0.00    +0.000 HD
ATOM     21  H   UNL     1      -2.778  -9.647 -11.129  0.00  0.00    +0.000 HD
ATOM     22  H   UNL     1      -3.765 -10.144  -9.736  0.00  0.00    +0.000 HD
ENDBRANCH  18  19
ENDBRANCH  14  18
ENDBRANCH   1  14
TORSDOF 6
ENDMDL
MODEL 9
REMARK VINA RESULT:    -3.360     24.518     25.632
REMARK INTER + INTRA:          -4.501
REMARK INTER:                  -4.239
REMARK INTRA:                  -0.262
REMARK UNBOUND:                -0.160
REMARK  Name = 8051
REMARK  6 active torsions:
REMARK  status: ('A' for Active; 'I' for Inactive)
REMARK    1  A    between atoms: C_2  and  C_3
REMARK    2  A    between atoms: C_2  and  C_4
REMARK    3  A    between atoms: C_3  and  C_5
REMARK    4  A    between atoms: C_4  and  C_6
REMARK    5  A    between atoms: C_5  and  C_7
REMARK    6  A    between atoms: C_7  and  C_8
REMARK                            x       y       z     vdW  Elec       q    Type
REMARK                         _______ _______ _______ _____ _____    ______ ____
ROOT
ATOM      1  C   UNL     1      16.856   9.121   3.425  0.00  0.00    +0.000 C 
ATOM      2  H   UNL     1      17.636   9.881   3.289  0.00  0.00    +0.000 HD
ATOM      3  H   UNL     1      17.225   8.430   4.194  0.00  0.00    +0.000 HD
ENDROOT
BRANCH   1   4
ATOM      4  C   UNL     1      15.572   9.790   3.925  0.00  0.00    +0.000 C 
ATOM      5  H   UNL     1      14.712   9.149   3.696  0.00  0.00    +0.000 HD
ATOM      6  H   UNL     1      15.616   9.896   5.015  0.00  0.00    +0.000 HD
BRANCH   4   7
ATOM      7  C   UNL     1      15.377  11.164   3.282  0.00  0.00    +0.000 C 
ATOM      8  H   UNL     1      15.286  11.930   4.062  0.00  0.00    +0.000 HD
ATOM      9  H   UNL     1      16.253  11.419   2.677  0.00  0.00    +0.000 HD
BRANCH   7  10
ATOM     10  C   UNL     1      14.135  11.198   2.406  0.00  0.00    +0.000 C 
ATOM     11  H   UNL     1      13.450  11.990   2.726  0.00  0.00    +0.000 HD
ATOM     12  H   UNL     1      14.412  11.388   1.365  0.00  0.00    +0.000 HD
ATOM     13  H   UNL     1      13.601  10.243   2.447  0.00  0.00    +0.000 HD
ENDBRANCH   7  10
ENDBRANCH   4   7
ENDBRANCH   1   4
BRANCH   1  14
ATOM     14  C   UNL     1      16.650   8.364   2.118  0.00  0.00    +0.000 C 
ATOM     15  H   UNL     1      15.580   8.214   1.937  0.00  0.00    +0.000 HD
ATOM     16  H   UNL     1      17.133   7.382   2.178  0.00  0.00    +0.000 HD
BRANCH  14  18
ATOM     17  O   UNL     1      16.526   9.798   0.199  0.00  0.00    +0.000 OA
ATOM     18  C   UNL     1      17.230   9.087   0.918  0.00  0.00    +0.000 C 
BRANCH  18  19
ATOM     19  C   UNL     1      18.701   8.917   0.647  0.00  0.00    +0.000 C 
ATOM     20  H   UNL     1      19.064   9.761   0.056  0.00  0.00    +0.000 HD
ATOM     21  H   UNL     1      19.243   8.859   1.595  0.00  0.00    +0.000 HD
ATOM     22  H   UNL     1      18.871   7.993   0.088  0.00  0.00    +0.000 HD
ENDBRANCH  18  19
ENDBRANCH  14  18
ENDBRANCH   1  14
TORSDOF 6
ENDMDL
MODEL 10
REMARK VINA RESULT:    -3.314     24.915     25.646
REMARK INTER + INTRA:          -4.443
REMARK INTER:                  -4.310
REMARK INTRA:                  -0.133
REMARK UNBOUND:                -0.160
REMARK  Name = 8051
REMARK  6 active torsions:
REMARK  status: ('A' for Active; 'I' for Inactive)
REMARK    1  A    between atoms: C_2  and  C_3
REMARK    2  A    between atoms: C_2  and  C_4
REMARK    3  A    between atoms: C_3  and  C_5
REMARK    4  A    between atoms: C_4  and  C_6
REMARK    5  A    between atoms: C_5  and  C_7
REMARK    6  A    between atoms: C_7  and  C_8
REMARK                            x       y       z     vdW  Elec       q    Type
REMARK                         _______ _______ _______ _____ _____    ______ ____
ROOT
ATOM      1  C   UNL     1      -6.057  -6.376  -9.814  0.00  0.00    +0.000 C 
ATOM      2  H   UNL     1      -6.317  -5.458 -10.357  0.00  0.00    +0.000 HD
ATOM      3  H   UNL     1      -6.913  -7.055  -9.921  0.00  0.00    +0.000 HD
ENDROOT
BRANCH   1   4
ATOM      4  C   UNL     1      -4.822  -7.016 -10.455  0.00  0.00    +0.000 C 
ATOM      5  H   UNL     1      -4.972  -8.099 -10.538  0.00  0.00    +0.000 HD
ATOM      6  H   UNL     1      -4.696  -6.627 -11.472  0.00  0.00    +0.000 HD
BRANCH   4   7
ATOM      7  C   UNL     1      -3.563  -6.731  -9.636  0.00  0.00    +0.000 C 
ATOM      8  H   UNL     1      -2.888  -6.080 -10.204  0.00  0.00    +0.000 HD
ATOM      9  H   UNL     1      -3.830  -6.199  -8.716  0.00  0.00    +0.000 HD
BRANCH   7  10
ATOM     10  C   UNL     1      -2.829  -8.013  -9.278  0.00  0.00    +0.000 C 
ATOM     11  H   UNL     1      -2.564  -8.031  -8.216  0.00  0.00    +0.000 HD
ATOM     12  H   UNL     1      -3.462  -8.882  -9.484  0.00  0.00    +0.000 HD
ATOM     13  H   UNL     1      -1.911  -8.116  -9.864  0.00  0.00    +0.000 HD
ENDBRANCH   7  10
ENDBRANCH   4   7
ENDBRANCH   1   4
BRANCH   1  14
ATOM     14  C   UNL     1      -5.848  -6.052  -8.339  0.00  0.00    +0.000 C 
ATOM     15  H   UNL     1      -5.579  -4.997  -8.222  0.00  0.00    +0.000 HD
ATOM     16  H   UNL     1      -5.034  -6.665  -7.936  0.00  0.00    +0.000 HD
BRANCH  14  18
ATOM     17  O   UNL     1      -7.098  -7.218  -6.656  0.00  0.00    +0.000 OA
ATOM     18  C   UNL     1      -7.080  -6.316  -7.495  0.00  0.00    +0.000 C 
BRANCH  18  19
ATOM     19  C   UNL     1      -8.274  -5.424  -7.708  0.00  0.00    +0.000 C 
ATOM     20  H   UNL     1      -9.168  -6.037  -7.849  0.00  0.00    +0.000 HD
ATOM     21  H   UNL     1      -8.400  -4.768  -6.843  0.00  0.00    +0.000 HD
ATOM     22  H   UNL     1      -8.122  -4.808  -8.598  0.00  0.00    +0.000 HD
ENDBRANCH  18  19
ENDBRANCH  14  18
ENDBRANCH   1  14
TORSDOF 6
ENDMDL
