MODEL 1
REMARK VINA RESULT:    -4.426      0.000      0.000
REMARK INTER + INTRA:          -7.094
REMARK INTER:                  -6.931
REMARK INTRA:                  -0.163
REMARK UNBOUND:                -0.727
REMARK  Name = 12367
REMARK  9 active torsions:
REMARK  status: ('A' for Active; 'I' for Inactive)
REMARK    1  A    between atoms: O_1  and  C_7
REMARK    2  A    between atoms: C_2  and  C_3
REMARK    3  A    between atoms: C_2  and  C_4
REMARK    4  A    between atoms: C_3  and  C_5
REMARK    5  A    between atoms: C_4  and  C_6
REMARK    6  A    between atoms: C_5  and  C_7
REMARK    7  A    between atoms: C_6  and  C_8
REMARK    8  A    between atoms: C_7  and  C_9
REMARK    9  A    between atoms: C_8  and  C_10
REMARK                            x       y       z     vdW  Elec       q    Type
REMARK                         _______ _______ _______ _____ _____    ______ ____
ROOT
ATOM      1  C   UNL     1       0.483  -6.144  15.843  0.00  0.00    +0.000 C 
ATOM      2  H   UNL     1       0.251  -6.555  14.853  0.00  0.00    +0.000 HD
ATOM      3  H   UNL     1       1.435  -6.586  16.162  0.00  0.00    +0.000 HD
ENDROOT
BRANCH   1   4
ATOM      4  C   UNL     1       0.628  -4.624  15.751  0.00  0.00    +0.000 C 
ATOM      5  H   UNL     1       0.771  -4.204  16.755  0.00  0.00    +0.000 HD
ATOM      6  H   UNL     1      -0.302  -4.200  15.353  0.00  0.00    +0.000 HD
BRANCH   4   7
ATOM      7  C   UNL     1       1.809  -4.230  14.859  0.00  0.00    +0.000 C 
ATOM      8  H   UNL     1       2.635  -4.937  15.005  0.00  0.00    +0.000 HD
ATOM      9  H   UNL     1       1.492  -4.306  13.811  0.00  0.00    +0.000 HD
BRANCH   7  10
ATOM     10  C   UNL     1       2.294  -2.805  15.138  0.00  0.00    +0.000 C 
ATOM     11  H   UNL     1       2.208  -2.586  16.208  0.00  0.00    +0.000 HD
BRANCH  10  12
ATOM     12  C   UNL     1       3.736  -2.614  14.687  0.00  0.00    +0.000 C 
ATOM     13  H   UNL     1       4.387  -2.368  15.531  0.00  0.00    +0.000 HD
ATOM     14  H   UNL     1       4.117  -3.519  14.200  0.00  0.00    +0.000 HD
ATOM     15  H   UNL     1       3.803  -1.808  13.948  0.00  0.00    +0.000 HD
ENDBRANCH  10  12
BRANCH  10  16
ATOM     16  O   UNL     1       1.466  -1.883  14.433  0.00  0.00    +0.000 OA
ATOM     17  H   UNL     1       0.602  -2.307  14.300  0.00  0.00    +0.000 HD
ENDBRANCH  10  16
ENDBRANCH   7  10
ENDBRANCH   4   7
ENDBRANCH   1   4
BRANCH   1  18
ATOM     18  C   UNL     1      -0.620  -6.537  16.828  0.00  0.00    +0.000 C 
ATOM     19  H   UNL     1      -0.986  -5.641  17.342  0.00  0.00    +0.000 HD
ATOM     20  H   UNL     1      -1.469  -6.954  16.273  0.00  0.00    +0.000 HD
BRANCH  18  21
ATOM     21  C   UNL     1      -0.165  -7.557  17.878  0.00  0.00    +0.000 C 
ATOM     22  H   UNL     1      -1.024  -7.819  18.509  0.00  0.00    +0.000 HD
ATOM     23  H   UNL     1       0.567  -7.073  18.538  0.00  0.00    +0.000 HD
BRANCH  21  24
ATOM     24  C   UNL     1       0.452  -8.845  17.329  0.00  0.00    +0.000 C 
ATOM     25  H   UNL     1       0.645  -8.724  16.256  0.00  0.00    +0.000 HD
ATOM     26  H   UNL     1       1.424  -9.012  17.810  0.00  0.00    +0.000 HD
BRANCH  24  27
ATOM     27  C   UNL     1      -0.417 -10.075  17.541  0.00  0.00    +0.000 C 
ATOM     28  H   UNL     1      -1.368  -9.794  18.005  0.00  0.00    +0.000 HD
ATOM     29  H   UNL     1       0.082 -10.797  18.195  0.00  0.00    +0.000 HD
ATOM     30  H   UNL     1      -0.634 -10.567  16.588  0.00  0.00    +0.000 HD
ENDBRANCH  24  27
ENDBRANCH  21  24
ENDBRANCH  18  21
ENDBRANCH   1  18
TORSDOF 9
ENDMDL
MODEL 2
REMARK VINA RESULT:    -4.236      2.248      5.733
REMARK INTER + INTRA:          -6.821
REMARK INTER:                  -6.479
REMARK INTRA:                  -0.343
REMARK UNBOUND:                -0.727
REMARK  Name = 12367
REMARK  9 active torsions:
REMARK  status: ('A' for Active; 'I' for Inactive)
REMARK    1  A    between atoms: O_1  and  C_7
REMARK    2  A    between atoms: C_2  and  C_3
REMARK    3  A    between atoms: C_2  and  C_4
REMARK    4  A    between atoms: C_3  and  C_5
REMARK    5  A    between atoms: C_4  and  C_6
REMARK    6  A    between atoms: C_5  and  C_7
REMARK    7  A    between atoms: C_6  and  C_8
REMARK    8  A    between atoms: C_7  and  C_9
REMARK    9  A    between atoms: C_8  and  C_10
REMARK                            x       y       z     vdW  Elec       q    Type
REMARK                         _______ _______ _______ _____ _____    ______ ____
ROOT
ATOM      1  C   UNL     1       0.614  -5.894  15.062  0.00  0.00    +0.000 C 
ATOM      2  H   UNL     1       1.574  -6.383  14.855  0.00  0.00    +0.000 HD
ATOM      3  H   UNL     1       0.207  -5.561  14.100  0.00  0.00    +0.000 HD
ENDROOT
BRANCH   1   4
ATOM      4  C   UNL     1      -0.347  -6.894  15.709  0.00  0.00    +0.000 C 
ATOM      5  H   UNL     1       0.073  -7.906  15.644  0.00  0.00    +0.000 HD
ATOM      6  H   UNL     1      -1.288  -6.898  15.146  0.00  0.00    +0.000 HD
BRANCH   4   7
ATOM      7  C   UNL     1      -0.612  -6.542  17.176  0.00  0.00    +0.000 C 
ATOM      8  H   UNL     1      -0.135  -5.585  17.419  0.00  0.00    +0.000 HD
ATOM      9  H   UNL     1      -1.694  -6.414  17.311  0.00  0.00    +0.000 HD
BRANCH   7  10
ATOM     10  C   UNL     1      -0.108  -7.628  18.131  0.00  0.00    +0.000 C 
ATOM     11  H   UNL     1      -0.714  -7.629  19.044  0.00  0.00    +0.000 HD
BRANCH  10  12
ATOM     12  C   UNL     1      -0.156  -9.002  17.478  0.00  0.00    +0.000 C 
ATOM     13  H   UNL     1      -0.183  -9.798  18.228  0.00  0.00    +0.000 HD
ATOM     14  H   UNL     1      -1.035  -9.099  16.830  0.00  0.00    +0.000 HD
ATOM     15  H   UNL     1       0.721  -9.154  16.839  0.00  0.00    +0.000 HD
ENDBRANCH  10  12
BRANCH  10  16
ATOM     16  O   UNL     1       1.239  -7.339  18.498  0.00  0.00    +0.000 OA
ATOM     17  H   UNL     1       1.713  -7.079  17.691  0.00  0.00    +0.000 HD
ENDBRANCH  10  16
ENDBRANCH   7  10
ENDBRANCH   4   7
ENDBRANCH   1   4
BRANCH   1  18
ATOM     18  C   UNL     1       0.845  -4.682  15.968  0.00  0.00    +0.000 C 
ATOM     19  H   UNL     1      -0.105  -4.382  16.423  0.00  0.00    +0.000 HD
ATOM     20  H   UNL     1       1.515  -4.966  16.788  0.00  0.00    +0.000 HD
BRANCH  18  21
ATOM     21  C   UNL     1       1.444  -3.478  15.234  0.00  0.00    +0.000 C 
ATOM     22  H   UNL     1       0.731  -2.645  15.285  0.00  0.00    +0.000 HD
ATOM     23  H   UNL     1       1.543  -3.733  14.170  0.00  0.00    +0.000 HD
BRANCH  21  24
ATOM     24  C   UNL     1       2.802  -2.994  15.747  0.00  0.00    +0.000 C 
ATOM     25  H   UNL     1       2.648  -2.162  16.445  0.00  0.00    +0.000 HD
ATOM     26  H   UNL     1       3.281  -3.800  16.315  0.00  0.00    +0.000 HD
BRANCH  24  27
ATOM     27  C   UNL     1       3.746  -2.545  14.642  0.00  0.00    +0.000 C 
ATOM     28  H   UNL     1       3.431  -1.575  14.244  0.00  0.00    +0.000 HD
ATOM     29  H   UNL     1       3.752  -3.266  13.818  0.00  0.00    +0.000 HD
ATOM     30  H   UNL     1       4.768  -2.446  15.019  0.00  0.00    +0.000 HD
ENDBRANCH  24  27
ENDBRANCH  21  24
ENDBRANCH  18  21
ENDBRANCH   1  18
TORSDOF 9
ENDMDL
MODEL 3
REMARK VINA RESULT:    -4.021      3.282      5.182
REMARK INTER + INTRA:          -6.511
REMARK INTER:                  -6.111
REMARK INTRA:                  -0.400
REMARK UNBOUND:                -0.727
REMARK  Name = 12367
REMARK  9 active torsions:
REMARK  status: ('A' for Active; 'I' for Inactive)
REMARK    1  A    between atoms: O_1  and  C_7
REMARK    2  A    between atoms: C_2  and  C_3
REMARK    3  A    between atoms: C_2  and  C_4
REMARK    4  A    between atoms: C_3  and  C_5
REMARK    5  A    between atoms: C_4  and  C_6
REMARK    6  A    between atoms: C_5  and  C_7
REMARK    7  A    between atoms: C_6  and  C_8
REMARK    8  A    between atoms: C_7  and  C_9
REMARK    9  A    between atoms: C_8  and  C_10
REMARK                            x       y       z     vdW  Elec       q    Type
REMARK                         _______ _______ _______ _____ _____    ______ ____
ROOT
ATOM      1  C   UNL     1       0.354  -6.477  15.145  0.00  0.00    +0.000 C 
ATOM      2  H   UNL     1       0.087  -6.046  14.172  0.00  0.00    +0.000 HD
ATOM      3  H   UNL     1      -0.503  -7.075  15.479  0.00  0.00    +0.000 HD
ENDROOT
BRANCH   1   4
ATOM      4  C   UNL     1       1.581  -7.378  14.993  0.00  0.00    +0.000 C 
ATOM      5  H   UNL     1       1.269  -8.430  14.987  0.00  0.00    +0.000 HD
ATOM      6  H   UNL     1       2.235  -7.240  15.863  0.00  0.00    +0.000 HD
BRANCH   4   7
ATOM      7  C   UNL     1       2.347  -7.064  13.704  0.00  0.00    +0.000 C 
ATOM      8  H   UNL     1       1.738  -7.342  12.835  0.00  0.00    +0.000 HD
ATOM      9  H   UNL     1       2.513  -5.980  13.656  0.00  0.00    +0.000 HD
BRANCH   7  10
ATOM     10  C   UNL     1       3.695  -7.785  13.642  0.00  0.00    +0.000 C 
ATOM     11  H   UNL     1       4.486  -7.072  13.383  0.00  0.00    +0.000 HD
BRANCH  10  12
ATOM     12  C   UNL     1       4.022  -8.459  14.967  0.00  0.00    +0.000 C 
ATOM     13  H   UNL     1       3.137  -8.936  15.400  0.00  0.00    +0.000 HD
ATOM     14  H   UNL     1       4.804  -9.217  14.839  0.00  0.00    +0.000 HD
ATOM     15  H   UNL     1       4.410  -7.727  15.684  0.00  0.00    +0.000 HD
ENDBRANCH  10  12
BRANCH  10  16
ATOM     16  O   UNL     1       3.648  -8.778  12.620  0.00  0.00    +0.000 OA
ATOM     17  H   UNL     1       4.545  -8.870  12.258  0.00  0.00    +0.000 HD
ENDBRANCH  10  16
ENDBRANCH   7  10
ENDBRANCH   4   7
ENDBRANCH   1   4
BRANCH   1  18
ATOM     18  C   UNL     1       0.615  -5.349  16.146  0.00  0.00    +0.000 C 
ATOM     19  H   UNL     1      -0.313  -5.117  16.682  0.00  0.00    +0.000 HD
ATOM     20  H   UNL     1       1.337  -5.691  16.896  0.00  0.00    +0.000 HD
BRANCH  18  21
ATOM     21  C   UNL     1       1.144  -4.067  15.496  0.00  0.00    +0.000 C 
ATOM     22  H   UNL     1       0.489  -3.233  15.779  0.00  0.00    +0.000 HD
ATOM     23  H   UNL     1       1.059  -4.169  14.406  0.00  0.00    +0.000 HD
BRANCH  21  24
ATOM     24  C   UNL     1       2.588  -3.695  15.838  0.00  0.00    +0.000 C 
ATOM     25  H   UNL     1       2.611  -3.199  16.816  0.00  0.00    +0.000 HD
ATOM     26  H   UNL     1       3.183  -4.611  15.934  0.00  0.00    +0.000 HD
BRANCH  24  27
ATOM     27  C   UNL     1       3.244  -2.789  14.808  0.00  0.00    +0.000 C 
ATOM     28  H   UNL     1       2.568  -1.973  14.533  0.00  0.00    +0.000 HD
ATOM     29  H   UNL     1       3.493  -3.347  13.900  0.00  0.00    +0.000 HD
ATOM     30  H   UNL     1       4.165  -2.351  15.204  0.00  0.00    +0.000 HD
ENDBRANCH  24  27
ENDBRANCH  21  24
ENDBRANCH  18  21
ENDBRANCH   1  18
TORSDOF 9
ENDMDL
MODEL 4
REMARK VINA RESULT:    -3.950     19.579     21.340
REMARK INTER + INTRA:          -6.409
REMARK INTER:                  -6.165
REMARK INTRA:                  -0.244
REMARK UNBOUND:                -0.727
REMARK  Name = 12367
REMARK  9 active torsions:
REMARK  status: ('A' for Active; 'I' for Inactive)
REMARK    1  A    between atoms: O_1  and  C_7
REMARK    2  A    between atoms: C_2  and  C_3
REMARK    3  A    between atoms: C_2  and  C_4
REMARK    4  A    between atoms: C_3  and  C_5
REMARK    5  A    between atoms: C_4  and  C_6
REMARK    6  A    between atoms: C_5  and  C_7
REMARK    7  A    between atoms: C_6  and  C_8
REMARK    8  A    between atoms: C_7  and  C_9
REMARK    9  A    between atoms: C_8  and  C_10
REMARK                            x       y       z     vdW  Elec       q    Type
REMARK                         _______ _______ _______ _____ _____    ______ ____
ROOT
ATOM      1  C   UNL     1      10.845  -9.006  -1.376  0.00  0.00    +0.000 C 
ATOM      2  H   UNL     1      10.252  -8.254  -1.909  0.00  0.00    +0.000 HD
ATOM      3  H   UNL     1      11.686  -8.482  -0.906  0.00  0.00    +0.000 HD
ENDROOT
BRANCH   1   4
ATOM      4  C   UNL     1       9.988  -9.673  -0.297  0.00  0.00    +0.000 C 
ATOM      5  H   UNL     1      10.225  -9.240   0.683  0.00  0.00    +0.000 HD
ATOM      6  H   UNL     1      10.241 -10.739  -0.249  0.00  0.00    +0.000 HD
BRANCH   4   7
ATOM      7  C   UNL     1       8.494  -9.498  -0.587  0.00  0.00    +0.000 C 
ATOM      8  H   UNL     1       8.062  -8.777   0.118  0.00  0.00    +0.000 HD
ATOM      9  H   UNL     1       8.384  -9.079  -1.595  0.00  0.00    +0.000 HD
BRANCH   7  10
ATOM     10  C   UNL     1       7.731 -10.823  -0.503  0.00  0.00    +0.000 C 
ATOM     11  H   UNL     1       6.872 -10.799  -1.184  0.00  0.00    +0.000 HD
BRANCH  10  12
ATOM     12  C   UNL     1       8.631 -12.001  -0.848  0.00  0.00    +0.000 C 
ATOM     13  H   UNL     1       8.260 -12.929  -0.401  0.00  0.00    +0.000 HD
ATOM     14  H   UNL     1       8.700 -12.137  -1.933  0.00  0.00    +0.000 HD
ATOM     15  H   UNL     1       9.650 -11.823  -0.488  0.00  0.00    +0.000 HD
ENDBRANCH  10  12
BRANCH  10  16
ATOM     16  O   UNL     1       7.236 -10.994   0.823  0.00  0.00    +0.000 OA
ATOM     17  H   UNL     1       7.544 -10.239   1.351  0.00  0.00    +0.000 HD
ENDBRANCH  10  16
ENDBRANCH   7  10
ENDBRANCH   4   7
ENDBRANCH   1   4
BRANCH   1  18
ATOM     18  C   UNL     1      11.377 -10.036  -2.376  0.00  0.00    +0.000 C 
ATOM     19  H   UNL     1      11.440 -11.016  -1.890  0.00  0.00    +0.000 HD
ATOM     20  H   UNL     1      10.665 -10.137  -3.203  0.00  0.00    +0.000 HD
BRANCH  18  21
ATOM     21  C   UNL     1      12.753  -9.678  -2.946  0.00  0.00    +0.000 C 
ATOM     22  H   UNL     1      13.471  -9.616  -2.118  0.00  0.00    +0.000 HD
ATOM     23  H   UNL     1      12.698  -8.671  -3.382  0.00  0.00    +0.000 HD
BRANCH  21  24
ATOM     24  C   UNL     1      13.305 -10.636  -4.003  0.00  0.00    +0.000 C 
ATOM     25  H   UNL     1      13.304 -11.657  -3.601  0.00  0.00    +0.000 HD
ATOM     26  H   UNL     1      12.636 -10.638  -4.872  0.00  0.00    +0.000 HD
BRANCH  24  27
ATOM     27  C   UNL     1      14.711 -10.288  -4.467  0.00  0.00    +0.000 C 
ATOM     28  H   UNL     1      14.674  -9.749  -5.419  0.00  0.00    +0.000 HD
ATOM     29  H   UNL     1      15.310 -11.193  -4.610  0.00  0.00    +0.000 HD
ATOM     30  H   UNL     1      15.217  -9.653  -3.734  0.00  0.00    +0.000 HD
ENDBRANCH  24  27
ENDBRANCH  21  24
ENDBRANCH  18  21
ENDBRANCH   1  18
TORSDOF 9
ENDMDL
MODEL 5
REMARK VINA RESULT:    -3.890     23.888     26.225
REMARK INTER + INTRA:          -6.322
REMARK INTER:                  -5.926
REMARK INTRA:                  -0.397
REMARK UNBOUND:                -0.727
REMARK  Name = 12367
REMARK  9 active torsions:
REMARK  status: ('A' for Active; 'I' for Inactive)
REMARK    1  A    between atoms: O_1  and  C_7
REMARK    2  A    between atoms: C_2  and  C_3
REMARK    3  A    between atoms: C_2  and  C_4
REMARK    4  A    between atoms: C_3  and  C_5
REMARK    5  A    between atoms: C_4  and  C_6
REMARK    6  A    between atoms: C_5  and  C_7
REMARK    7  A    between atoms: C_6  and  C_8
REMARK    8  A    between atoms: C_7  and  C_9
REMARK    9  A    between atoms: C_8  and  C_10
REMARK                            x       y       z     vdW  Elec       q    Type
REMARK                         _______ _______ _______ _____ _____    ______ ____
ROOT
ATOM      1  C   UNL     1       6.932  13.177  -1.804  0.00  0.00    +0.000 C 
ATOM      2  H   UNL     1       7.119  14.239  -2.004  0.00  0.00    +0.000 HD
ATOM      3  H   UNL     1       6.503  12.746  -2.717  0.00  0.00    +0.000 HD
ENDROOT
BRANCH   1   4
ATOM      4  C   UNL     1       8.249  12.473  -1.473  0.00  0.00    +0.000 C 
ATOM      5  H   UNL     1       8.099  11.783  -0.632  0.00  0.00    +0.000 HD
ATOM      6  H   UNL     1       8.983  13.221  -1.150  0.00  0.00    +0.000 HD
BRANCH   4   7
ATOM      7  C   UNL     1       8.785  11.698  -2.681  0.00  0.00    +0.000 C 
ATOM      8  H   UNL     1       9.741  11.226  -2.423  0.00  0.00    +0.000 HD
ATOM      9  H   UNL     1       8.076  10.895  -2.920  0.00  0.00    +0.000 HD
BRANCH   7  10
ATOM     10  C   UNL     1       8.966  12.595  -3.909  0.00  0.00    +0.000 C 
ATOM     11  H   UNL     1       8.442  13.545  -3.754  0.00  0.00    +0.000 HD
BRANCH  10  12
ATOM     12  C   UNL     1      10.439  12.857  -4.189  0.00  0.00    +0.000 C 
ATOM     13  H   UNL     1      10.587  13.258  -5.196  0.00  0.00    +0.000 HD
ATOM     14  H   UNL     1      10.856  13.564  -3.463  0.00  0.00    +0.000 HD
ATOM     15  H   UNL     1      11.018  11.932  -4.093  0.00  0.00    +0.000 HD
ENDBRANCH  10  12
BRANCH  10  16
ATOM     16  O   UNL     1       8.388  11.955  -5.044  0.00  0.00    +0.000 OA
ATOM     17  H   UNL     1       7.466  11.743  -4.824  0.00  0.00    +0.000 HD
ENDBRANCH  10  16
ENDBRANCH   7  10
ENDBRANCH   4   7
ENDBRANCH   1   4
BRANCH   1  18
ATOM     18  C   UNL     1       5.929  13.046  -0.655  0.00  0.00    +0.000 C 
ATOM     19  H   UNL     1       5.987  13.936  -0.018  0.00  0.00    +0.000 HD
ATOM     20  H   UNL     1       4.912  13.014  -1.064  0.00  0.00    +0.000 HD
BRANCH  18  21
ATOM     21  C   UNL     1       6.155  11.803   0.212  0.00  0.00    +0.000 C 
ATOM     22  H   UNL     1       7.186  11.456   0.068  0.00  0.00    +0.000 HD
ATOM     23  H   UNL     1       5.506  10.998  -0.158  0.00  0.00    +0.000 HD
BRANCH  21  24
ATOM     24  C   UNL     1       5.902  11.982   1.710  0.00  0.00    +0.000 C 
ATOM     25  H   UNL     1       4.821  12.011   1.893  0.00  0.00    +0.000 HD
ATOM     26  H   UNL     1       6.291  11.109   2.248  0.00  0.00    +0.000 HD
BRANCH  24  27
ATOM     27  C   UNL     1       6.537  13.237   2.289  0.00  0.00    +0.000 C 
ATOM     28  H   UNL     1       7.206  13.697   1.556  0.00  0.00    +0.000 HD
ATOM     29  H   UNL     1       7.120  13.001   3.184  0.00  0.00    +0.000 HD
ATOM     30  H   UNL     1       5.771  13.970   2.562  0.00  0.00    +0.000 HD
ENDBRANCH  24  27
ENDBRANCH  21  24
ENDBRANCH  18  21
ENDBRANCH   1  18
TORSDOF 9
ENDMDL
MODEL 6
REMARK VINA RESULT:    -3.879      1.712      2.033
REMARK INTER + INTRA:          -6.307
REMARK INTER:                  -5.910
REMARK INTRA:                  -0.398
REMARK UNBOUND:                -0.727
REMARK  Name = 12367
REMARK  9 active torsions:
REMARK  status: ('A' for Active; 'I' for Inactive)
REMARK    1  A    between atoms: O_1  and  C_7
REMARK    2  A    between atoms: C_2  and  C_3
REMARK    3  A    between atoms: C_2  and  C_4
REMARK    4  A    between atoms: C_3  and  C_5
REMARK    5  A    between atoms: C_4  and  C_6
REMARK    6  A    between atoms: C_5  and  C_7
REMARK    7  A    between atoms: C_6  and  C_8
REMARK    8  A    between atoms: C_7  and  C_9
REMARK    9  A    between atoms: C_8  and  C_10
REMARK                            x       y       z     vdW  Elec       q    Type
REMARK                         _______ _______ _______ _____ _____    ______ ____
ROOT
ATOM      1  C   UNL     1      -0.582  -6.133  16.336  0.00  0.00    +0.000 C 
ATOM      2  H   UNL     1      -1.332  -5.814  17.071  0.00  0.00    +0.000 HD
ATOM      3  H   UNL     1      -1.116  -6.355  15.404  0.00  0.00    +0.000 HD
ENDROOT
BRANCH   1   4
ATOM      4  C   UNL     1       0.421  -5.003  16.097  0.00  0.00    +0.000 C 
ATOM      5  H   UNL     1       0.303  -4.233  16.870  0.00  0.00    +0.000 HD
ATOM      6  H   UNL     1       0.202  -4.529  15.133  0.00  0.00    +0.000 HD
BRANCH   4   7
ATOM      7  C   UNL     1       1.862  -5.525  16.111  0.00  0.00    +0.000 C 
ATOM      8  H   UNL     1       2.448  -4.972  16.855  0.00  0.00    +0.000 HD
ATOM      9  H   UNL     1       1.845  -6.577  16.422  0.00  0.00    +0.000 HD
BRANCH   7  10
ATOM     10  C   UNL     1       2.531  -5.413  14.739  0.00  0.00    +0.000 C 
ATOM     11  H   UNL     1       3.594  -5.177  14.863  0.00  0.00    +0.000 HD
BRANCH  10  12
ATOM     12  C   UNL     1       2.378  -6.702  13.943  0.00  0.00    +0.000 C 
ATOM     13  H   UNL     1       2.888  -6.636  12.978  0.00  0.00    +0.000 HD
ATOM     14  H   UNL     1       2.783  -7.556  14.499  0.00  0.00    +0.000 HD
ATOM     15  H   UNL     1       1.319  -6.919  13.765  0.00  0.00    +0.000 HD
ENDBRANCH  10  12
BRANCH  10  16
ATOM     16  O   UNL     1       1.926  -4.348  14.010  0.00  0.00    +0.000 OA
ATOM     17  H   UNL     1       1.593  -3.702  14.656  0.00  0.00    +0.000 HD
ENDBRANCH  10  16
ENDBRANCH   7  10
ENDBRANCH   4   7
ENDBRANCH   1   4
BRANCH   1  18
ATOM     18  C   UNL     1       0.117  -7.397  16.840  0.00  0.00    +0.000 C 
ATOM     19  H   UNL     1      -0.210  -8.256  16.243  0.00  0.00    +0.000 HD
ATOM     20  H   UNL     1       1.198  -7.298  16.688  0.00  0.00    +0.000 HD
BRANCH  18  21
ATOM     21  C   UNL     1      -0.150  -7.693  18.319  0.00  0.00    +0.000 C 
ATOM     22  H   UNL     1      -1.186  -7.415  18.552  0.00  0.00    +0.000 HD
ATOM     23  H   UNL     1       0.489  -7.039  18.927  0.00  0.00    +0.000 HD
BRANCH  21  24
ATOM     24  C   UNL     1       0.078  -9.141  18.760  0.00  0.00    +0.000 C 
ATOM     25  H   UNL     1       1.140  -9.283  18.996  0.00  0.00    +0.000 HD
ATOM     26  H   UNL     1      -0.480  -9.329  19.685  0.00  0.00    +0.000 HD
BRANCH  24  27
ATOM     27  C   UNL     1      -0.339 -10.168  17.719  0.00  0.00    +0.000 C 
ATOM     28  H   UNL     1      -1.065  -9.732  17.025  0.00  0.00    +0.000 HD
ATOM     29  H   UNL     1      -0.802 -11.039  18.194  0.00  0.00    +0.000 HD
ATOM     30  H   UNL     1       0.525 -10.510  17.141  0.00  0.00    +0.000 HD
ENDBRANCH  24  27
ENDBRANCH  21  24
ENDBRANCH  18  21
ENDBRANCH   1  18
TORSDOF 9
ENDMDL
MODEL 7
REMARK VINA RESULT:    -3.752      1.811      2.663
REMARK INTER + INTRA:          -6.124
REMARK INTER:                  -5.774
REMARK INTRA:                  -0.351
REMARK UNBOUND:                -0.727
REMARK  Name = 12367
REMARK  9 active torsions:
REMARK  status: ('A' for Active; 'I' for Inactive)
REMARK    1  A    between atoms: O_1  and  C_7
REMARK    2  A    between atoms: C_2  and  C_3
REMARK    3  A    between atoms: C_2  and  C_4
REMARK    4  A    between atoms: C_3  and  C_5
REMARK    5  A    between atoms: C_4  and  C_6
REMARK    6  A    between atoms: C_5  and  C_7
REMARK    7  A    between atoms: C_6  and  C_8
REMARK    8  A    between atoms: C_7  and  C_9
REMARK    9  A    between atoms: C_8  and  C_10
REMARK                            x       y       z     vdW  Elec       q    Type
REMARK                         _______ _______ _______ _____ _____    ______ ____
ROOT
ATOM      1  C   UNL     1      -0.517  -7.793  16.976  0.00  0.00    +0.000 C 
ATOM      2  H   UNL     1      -1.168  -7.621  17.841  0.00  0.00    +0.000 HD
ATOM      3  H   UNL     1      -0.952  -8.620  16.402  0.00  0.00    +0.000 HD
ENDROOT
BRANCH   1   4
ATOM      4  C   UNL     1      -0.467  -6.535  16.106  0.00  0.00    +0.000 C 
ATOM      5  H   UNL     1      -1.428  -6.008  16.162  0.00  0.00    +0.000 HD
ATOM      6  H   UNL     1      -0.321  -6.830  15.060  0.00  0.00    +0.000 HD
BRANCH   4   7
ATOM      7  C   UNL     1       0.658  -5.595  16.551  0.00  0.00    +0.000 C 
ATOM      8  H   UNL     1       0.456  -5.229  17.565  0.00  0.00    +0.000 HD
ATOM      9  H   UNL     1       1.593  -6.168  16.588  0.00  0.00    +0.000 HD
BRANCH   7  10
ATOM     10  C   UNL     1       0.830  -4.409  15.598  0.00  0.00    +0.000 C 
ATOM     11  H   UNL     1       0.076  -3.644  15.818  0.00  0.00    +0.000 HD
BRANCH  10  12
ATOM     12  C   UNL     1       2.224  -3.807  15.712  0.00  0.00    +0.000 C 
ATOM     13  H   UNL     1       2.198  -2.719  15.600  0.00  0.00    +0.000 HD
ATOM     14  H   UNL     1       2.678  -4.050  16.680  0.00  0.00    +0.000 HD
ATOM     15  H   UNL     1       2.885  -4.222  14.943  0.00  0.00    +0.000 HD
ENDBRANCH  10  12
BRANCH  10  16
ATOM     16  O   UNL     1       0.629  -4.852  14.258  0.00  0.00    +0.000 OA
ATOM     17  H   UNL     1       0.831  -5.802  14.230  0.00  0.00    +0.000 HD
ENDBRANCH  10  16
ENDBRANCH   7  10
ENDBRANCH   4   7
ENDBRANCH   1   4
BRANCH   1  18
ATOM     18  C   UNL     1       0.880  -8.186  17.462  0.00  0.00    +0.000 C 
ATOM     19  H   UNL     1       1.235  -9.050  16.888  0.00  0.00    +0.000 HD
ATOM     20  H   UNL     1       1.577  -7.364  17.262  0.00  0.00    +0.000 HD
BRANCH  18  21
ATOM     21  C   UNL     1       0.932  -8.529  18.954  0.00  0.00    +0.000 C 
ATOM     22  H   UNL     1       1.940  -8.311  19.330  0.00  0.00    +0.000 HD
ATOM     23  H   UNL     1       0.788  -9.611  19.068  0.00  0.00    +0.000 HD
BRANCH  21  24
ATOM     24  C   UNL     1      -0.088  -7.808  19.838  0.00  0.00    +0.000 C 
ATOM     25  H   UNL     1      -0.113  -6.745  19.566  0.00  0.00    +0.000 HD
ATOM     26  H   UNL     1      -1.088  -8.210  19.637  0.00  0.00    +0.000 HD
BRANCH  24  27
ATOM     27  C   UNL     1       0.200  -7.931  21.326  0.00  0.00    +0.000 C 
ATOM     28  H   UNL     1       1.003  -7.246  21.616  0.00  0.00    +0.000 HD
ATOM     29  H   UNL     1       0.512  -8.949  21.579  0.00  0.00    +0.000 HD
ATOM     30  H   UNL     1      -0.688  -7.687  21.916  0.00  0.00    +0.000 HD
ENDBRANCH  24  27
ENDBRANCH  21  24
ENDBRANCH  18  21
ENDBRANCH   1  18
TORSDOF 9
ENDMDL
MODEL 8
REMARK VINA RESULT:    -3.709     15.316     16.306
REMARK INTER + INTRA:          -6.063
REMARK INTER:                  -5.683
REMARK INTRA:                  -0.380
REMARK UNBOUND:                -0.727
REMARK  Name = 12367
REMARK  9 active torsions:
REMARK  status: ('A' for Active; 'I' for Inactive)
REMARK    1  A    between atoms: O_1  and  C_7
REMARK    2  A    between atoms: C_2  and  C_3
REMARK    3  A    between atoms: C_2  and  C_4
REMARK    4  A    between atoms: C_3  and  C_5
REMARK    5  A    between atoms: C_4  and  C_6
REMARK    6  A    between atoms: C_5  and  C_7
REMARK    7  A    between atoms: C_6  and  C_8
REMARK    8  A    between atoms: C_7  and  C_9
REMARK    9  A    between atoms: C_8  and  C_10
REMARK                            x       y       z     vdW  Elec       q    Type
REMARK                         _______ _______ _______ _____ _____    ______ ____
ROOT
ATOM      1  C   UNL     1      -8.890   7.509  21.533  0.00  0.00    +0.000 C 
ATOM      2  H   UNL     1      -7.965   7.643  22.107  0.00  0.00    +0.000 HD
ATOM      3  H   UNL     1      -9.725   7.618  22.235  0.00  0.00    +0.000 HD
ENDROOT
BRANCH   1   4
ATOM      4  C   UNL     1      -8.987   8.585  20.448  0.00  0.00    +0.000 C 
ATOM      5  H   UNL     1      -8.449   9.485  20.771  0.00  0.00    +0.000 HD
ATOM      6  H   UNL     1     -10.039   8.866  20.317  0.00  0.00    +0.000 HD
BRANCH   4   7
ATOM      7  C   UNL     1      -8.405   8.090  19.120  0.00  0.00    +0.000 C 
ATOM      8  H   UNL     1      -7.384   8.473  18.998  0.00  0.00    +0.000 HD
ATOM      9  H   UNL     1      -8.343   6.995  19.156  0.00  0.00    +0.000 HD
BRANCH   7  10
ATOM     10  C   UNL     1      -9.261   8.510  17.922  0.00  0.00    +0.000 C 
ATOM     11  H   UNL     1     -10.036   9.212  18.249  0.00  0.00    +0.000 HD
BRANCH  10  12
ATOM     12  C   UNL     1      -8.410   9.149  16.833  0.00  0.00    +0.000 C 
ATOM     13  H   UNL     1      -8.088   8.409  16.095  0.00  0.00    +0.000 HD
ATOM     14  H   UNL     1      -8.965   9.942  16.318  0.00  0.00    +0.000 HD
ATOM     15  H   UNL     1      -7.522   9.620  17.268  0.00  0.00    +0.000 HD
ENDBRANCH  10  12
BRANCH  10  16
ATOM     16  O   UNL     1      -9.908   7.359  17.384  0.00  0.00    +0.000 OA
ATOM     17  H   UNL     1     -10.146   7.560  16.464  0.00  0.00    +0.000 HD
ENDBRANCH  10  16
ENDBRANCH   7  10
ENDBRANCH   4   7
ENDBRANCH   1   4
BRANCH   1  18
ATOM     18  C   UNL     1      -8.912   6.105  20.924  0.00  0.00    +0.000 C 
ATOM     19  H   UNL     1      -9.891   5.921  20.469  0.00  0.00    +0.000 HD
ATOM     20  H   UNL     1      -8.171   6.049  20.118  0.00  0.00    +0.000 HD
BRANCH  18  21
ATOM     21  C   UNL     1      -8.624   4.996  21.941  0.00  0.00    +0.000 C 
ATOM     22  H   UNL     1      -9.467   4.293  21.944  0.00  0.00    +0.000 HD
ATOM     23  H   UNL     1      -8.592   5.443  22.944  0.00  0.00    +0.000 HD
BRANCH  21  24
ATOM     24  C   UNL     1      -7.331   4.209  21.718  0.00  0.00    +0.000 C 
ATOM     25  H   UNL     1      -6.716   4.261  22.626  0.00  0.00    +0.000 HD
ATOM     26  H   UNL     1      -7.575   3.151  21.561  0.00  0.00    +0.000 HD
BRANCH  24  27
ATOM     27  C   UNL     1      -6.512   4.704  20.536  0.00  0.00    +0.000 C 
ATOM     28  H   UNL     1      -5.591   4.121  20.441  0.00  0.00    +0.000 HD
ATOM     29  H   UNL     1      -6.238   5.756  20.665  0.00  0.00    +0.000 HD
ATOM     30  H   UNL     1      -7.077   4.608  19.604  0.00  0.00    +0.000 HD
ENDBRANCH  24  27
ENDBRANCH  21  24
ENDBRANCH  18  21
ENDBRANCH   1  18
TORSDOF 9
ENDMDL
MODEL 9
REMARK VINA RESULT:    -3.531      2.966      3.848
REMARK INTER + INTRA:          -5.807
REMARK INTER:                  -5.079
REMARK INTRA:                  -0.727
REMARK UNBOUND:                -0.727
REMARK  Name = 12367
REMARK  9 active torsions:
REMARK  status: ('A' for Active; 'I' for Inactive)
REMARK    1  A    between atoms: O_1  and  C_7
REMARK    2  A    between atoms: C_2  and  C_3
REMARK    3  A    between atoms: C_2  and  C_4
REMARK    4  A    between atoms: C_3  and  C_5
REMARK    5  A    between atoms: C_4  and  C_6
REMARK    6  A    between atoms: C_5  and  C_7
REMARK    7  A    between atoms: C_6  and  C_8
REMARK    8  A    between atoms: C_7  and  C_9
REMARK    9  A    between atoms: C_8  and  C_10
REMARK                            x       y       z     vdW  Elec       q    Type
REMARK                         _______ _______ _______ _____ _____    ______ ____
ROOT
ATOM      1  C   UNL     1       2.235  -4.776  14.545  0.00  0.00    +0.000 C 
ATOM      2  H   UNL     1       2.344  -4.262  13.582  0.00  0.00    +0.000 HD
ATOM      3  H   UNL     1       1.894  -5.796  14.332  0.00  0.00    +0.000 HD
ENDROOT
BRANCH   1   4
ATOM      4  C   UNL     1       3.586  -4.825  15.262  0.00  0.00    +0.000 C 
ATOM      5  H   UNL     1       3.496  -4.363  16.254  0.00  0.00    +0.000 HD
ATOM      6  H   UNL     1       4.313  -4.232  14.694  0.00  0.00    +0.000 HD
BRANCH   4   7
ATOM      7  C   UNL     1       4.084  -6.266  15.413  0.00  0.00    +0.000 C 
ATOM      8  H   UNL     1       3.493  -6.931  14.771  0.00  0.00    +0.000 HD
ATOM      9  H   UNL     1       5.124  -6.311  15.065  0.00  0.00    +0.000 HD
BRANCH   7  10
ATOM     10  C   UNL     1       4.015  -6.753  16.863  0.00  0.00    +0.000 C 
ATOM     11  H   UNL     1       4.996  -7.130  17.174  0.00  0.00    +0.000 HD
BRANCH  10  12
ATOM     12  C   UNL     1       3.570  -5.638  17.799  0.00  0.00    +0.000 C 
ATOM     13  H   UNL     1       3.158  -4.791  17.241  0.00  0.00    +0.000 HD
ATOM     14  H   UNL     1       2.812  -5.997  18.504  0.00  0.00    +0.000 HD
ATOM     15  H   UNL     1       4.414  -5.282  18.400  0.00  0.00    +0.000 HD
ENDBRANCH  10  12
BRANCH  10  16
ATOM     16  O   UNL     1       3.083  -7.827  16.951  0.00  0.00    +0.000 OA
ATOM     17  H   UNL     1       2.890  -8.123  16.046  0.00  0.00    +0.000 HD
ENDBRANCH  10  16
ENDBRANCH   7  10
ENDBRANCH   4   7
ENDBRANCH   1   4
BRANCH   1  18
ATOM     18  C   UNL     1       1.185  -4.051  15.391  0.00  0.00    +0.000 C 
ATOM     19  H   UNL     1       1.687  -3.376  16.094  0.00  0.00    +0.000 HD
ATOM     20  H   UNL     1       0.564  -3.425  14.739  0.00  0.00    +0.000 HD
BRANCH  18  21
ATOM     21  C   UNL     1       0.277  -5.000  16.179  0.00  0.00    +0.000 C 
ATOM     22  H   UNL     1      -0.713  -4.538  16.279  0.00  0.00    +0.000 HD
ATOM     23  H   UNL     1       0.675  -5.098  17.198  0.00  0.00    +0.000 HD
BRANCH  21  24
ATOM     24  C   UNL     1       0.106  -6.401  15.588  0.00  0.00    +0.000 C 
ATOM     25  H   UNL     1      -0.599  -6.355  14.748  0.00  0.00    +0.000 HD
ATOM     26  H   UNL     1       1.065  -6.739  15.178  0.00  0.00    +0.000 HD
BRANCH  24  27
ATOM     27  C   UNL     1      -0.388  -7.430  16.593  0.00  0.00    +0.000 C 
ATOM     28  H   UNL     1      -1.193  -8.031  16.157  0.00  0.00    +0.000 HD
ATOM     29  H   UNL     1      -0.776  -6.942  17.492  0.00  0.00    +0.000 HD
ATOM     30  H   UNL     1       0.421  -8.104  16.890  0.00  0.00    +0.000 HD
ENDBRANCH  24  27
ENDBRANCH  21  24
ENDBRANCH  18  21
ENDBRANCH   1  18
TORSDOF 9
ENDMDL
MODEL 10
REMARK VINA RESULT:    -3.529     15.872     17.112
REMARK INTER + INTRA:          -5.803
REMARK INTER:                  -5.593
REMARK INTRA:                  -0.210
REMARK UNBOUND:                -0.727
REMARK  Name = 12367
REMARK  9 active torsions:
REMARK  status: ('A' for Active; 'I' for Inactive)
REMARK    1  A    between atoms: O_1  and  C_7
REMARK    2  A    between atoms: C_2  and  C_3
REMARK    3  A    between atoms: C_2  and  C_4
REMARK    4  A    between atoms: C_3  and  C_5
REMARK    5  A    between atoms: C_4  and  C_6
REMARK    6  A    between atoms: C_5  and  C_7
REMARK    7  A    between atoms: C_6  and  C_8
REMARK    8  A    between atoms: C_7  and  C_9
REMARK    9  A    between atoms: C_8  and  C_10
REMARK                            x       y       z     vdW  Elec       q    Type
REMARK                         _______ _______ _______ _____ _____    ______ ____
ROOT
ATOM      1  C   UNL     1       0.571  11.207  11.636  0.00  0.00    +0.000 C 
ATOM      2  H   UNL     1       0.905  11.784  10.765  0.00  0.00    +0.000 HD
ATOM      3  H   UNL     1       0.500  11.906  12.479  0.00  0.00    +0.000 HD
ENDROOT
BRANCH   1   4
ATOM      4  C   UNL     1      -0.804  10.598  11.356  0.00  0.00    +0.000 C 
ATOM      5  H   UNL     1      -0.687   9.564  11.006  0.00  0.00    +0.000 HD
ATOM      6  H   UNL     1      -1.286  11.160  10.548  0.00  0.00    +0.000 HD
BRANCH   4   7
ATOM      7  C   UNL     1      -1.686  10.616  12.609  0.00  0.00    +0.000 C 
ATOM      8  H   UNL     1      -1.487   9.723  13.215  0.00  0.00    +0.000 HD
ATOM      9  H   UNL     1      -1.412  11.491  13.212  0.00  0.00    +0.000 HD
BRANCH   7  10
ATOM     10  C   UNL     1      -3.177  10.686  12.265  0.00  0.00    +0.000 C 
ATOM     11  H   UNL     1      -3.693  11.335  12.982  0.00  0.00    +0.000 HD
BRANCH  10  12
ATOM     12  C   UNL     1      -3.393  11.204  10.850  0.00  0.00    +0.000 C 
ATOM     13  H   UNL     1      -3.385  10.388  10.122  0.00  0.00    +0.000 HD
ATOM     14  H   UNL     1      -4.347  11.738  10.770  0.00  0.00    +0.000 HD
ATOM     15  H   UNL     1      -2.610  11.921  10.581  0.00  0.00    +0.000 HD
ENDBRANCH  10  12
BRANCH  10  16
ATOM     16  O   UNL     1      -3.742   9.381  12.369  0.00  0.00    +0.000 OA
ATOM     17  H   UNL     1      -4.435   9.415  13.049  0.00  0.00    +0.000 HD
ENDBRANCH  10  16
ENDBRANCH   7  10
ENDBRANCH   4   7
ENDBRANCH   1   4
BRANCH   1  18
ATOM     18  C   UNL     1       1.603  10.123  11.954  0.00  0.00    +0.000 C 
ATOM     19  H   UNL     1       1.726  10.045  13.041  0.00  0.00    +0.000 HD
ATOM     20  H   UNL     1       1.229   9.153  11.607  0.00  0.00    +0.000 HD
BRANCH  18  21
ATOM     21  C   UNL     1       2.974  10.382  11.320  0.00  0.00    +0.000 C 
ATOM     22  H   UNL     1       3.150  11.465  11.291  0.00  0.00    +0.000 HD
ATOM     23  H   UNL     1       2.943  10.047  10.275  0.00  0.00    +0.000 HD
BRANCH  21  24
ATOM     24  C   UNL     1       4.163   9.711  12.011  0.00  0.00    +0.000 C 
ATOM     25  H   UNL     1       4.383   8.761  11.508  0.00  0.00    +0.000 HD
ATOM     26  H   UNL     1       5.051  10.344  11.895  0.00  0.00    +0.000 HD
BRANCH  24  27
ATOM     27  C   UNL     1       3.939   9.447  13.492  0.00  0.00    +0.000 C 
ATOM     28  H   UNL     1       4.712   8.778  13.880  0.00  0.00    +0.000 HD
ATOM     29  H   UNL     1       2.964   8.977  13.660  0.00  0.00    +0.000 HD
ATOM     30  H   UNL     1       3.974  10.379  14.063  0.00  0.00    +0.000 HD
ENDBRANCH  24  27
ENDBRANCH  21  24
ENDBRANCH  18  21
ENDBRANCH   1  18
TORSDOF 9
ENDMDL
