MODEL 1
REMARK VINA RESULT:    -4.308      0.000      0.000
REMARK INTER + INTRA:          -6.583
REMARK INTER:                  -6.004
REMARK INTRA:                  -0.579
REMARK UNBOUND:                -0.512
REMARK  Name = 13187
REMARK  8 active torsions:
REMARK  status: ('A' for Active; 'I' for Inactive)
REMARK    1  A    between atoms: C_2  and  C_3
REMARK    2  A    between atoms: C_2  and  C_4
REMARK    3  A    between atoms: C_3  and  C_5
REMARK    4  A    between atoms: C_4  and  C_6
REMARK    5  A    between atoms: C_5  and  C_7
REMARK    6  A    between atoms: C_6  and  C_8
REMARK    7  A    between atoms: C_7  and  C_9
REMARK    8  A    between atoms: C_9  and  C_10
REMARK                            x       y       z     vdW  Elec       q    Type
REMARK                         _______ _______ _______ _____ _____    ______ ____
ROOT
ATOM      1  C   UNL     1       6.187  -2.974  -3.006  0.00  0.00    +0.000 C 
ATOM      2  H   UNL     1       6.106  -3.739  -3.787  0.00  0.00    +0.000 HD
ATOM      3  H   UNL     1       5.736  -2.056  -3.403  0.00  0.00    +0.000 HD
ENDROOT
BRANCH   1   4
ATOM      4  C   UNL     1       5.420  -3.424  -1.760  0.00  0.00    +0.000 C 
ATOM      5  H   UNL     1       6.079  -3.375  -0.885  0.00  0.00    +0.000 HD
ATOM      6  H   UNL     1       5.116  -4.471  -1.877  0.00  0.00    +0.000 HD
BRANCH   4   7
ATOM      7  C   UNL     1       4.184  -2.555  -1.524  0.00  0.00    +0.000 C 
ATOM      8  H   UNL     1       3.461  -2.714  -2.333  0.00  0.00    +0.000 HD
ATOM      9  H   UNL     1       4.471  -1.497  -1.548  0.00  0.00    +0.000 HD
BRANCH   7  10
ATOM     10  C   UNL     1       3.527  -2.878  -0.182  0.00  0.00    +0.000 C 
ATOM     11  H   UNL     1       2.587  -3.416  -0.348  0.00  0.00    +0.000 HD
ATOM     12  H   UNL     1       3.280  -1.949   0.346  0.00  0.00    +0.000 HD
BRANCH  10  13
ATOM     13  C   UNL     1       4.436  -3.725   0.695  0.00  0.00    +0.000 C 
ATOM     14  H   UNL     1       4.272  -3.507   1.755  0.00  0.00    +0.000 HD
ATOM     15  H   UNL     1       5.489  -3.538   0.463  0.00  0.00    +0.000 HD
ATOM     16  H   UNL     1       4.236  -4.789   0.532  0.00  0.00    +0.000 HD
ENDBRANCH  10  13
ENDBRANCH   7  10
ENDBRANCH   4   7
ENDBRANCH   1   4
BRANCH   1  17
ATOM     17  C   UNL     1       7.664  -2.724  -2.688  0.00  0.00    +0.000 C 
ATOM     18  H   UNL     1       8.289  -3.228  -3.437  0.00  0.00    +0.000 HD
ATOM     19  H   UNL     1       7.877  -1.652  -2.773  0.00  0.00    +0.000 HD
BRANCH  17  20
ATOM     20  C   UNL     1       8.052  -3.213  -1.296  0.00  0.00    +0.000 C 
ATOM     21  H   UNL     1       7.177  -3.636  -0.790  0.00  0.00    +0.000 HD
ATOM     22  H   UNL     1       8.818  -3.993  -1.378  0.00  0.00    +0.000 HD
BRANCH  20  24
ATOM     23  O   UNL     1       9.722  -1.632  -0.617  0.00  0.00    +0.000 OA
ATOM     24  C   UNL     1       8.606  -2.110  -0.415  0.00  0.00    +0.000 C 
BRANCH  24  25
ATOM     25  C   UNL     1       7.747  -1.634   0.727  0.00  0.00    +0.000 C 
ATOM     26  H   UNL     1       8.367  -1.476   1.615  0.00  0.00    +0.000 HD
ATOM     27  H   UNL     1       6.988  -2.387   0.953  0.00  0.00    +0.000 HD
ATOM     28  H   UNL     1       7.271  -0.688   0.456  0.00  0.00    +0.000 HD
ENDBRANCH  24  25
ENDBRANCH  20  24
ENDBRANCH  17  20
ENDBRANCH   1  17
TORSDOF 8
ENDMDL
MODEL 2
REMARK VINA RESULT:    -4.295     16.845     19.030
REMARK INTER + INTRA:          -6.565
REMARK INTER:                  -6.276
REMARK INTRA:                  -0.289
REMARK UNBOUND:                -0.512
REMARK  Name = 13187
REMARK  8 active torsions:
REMARK  status: ('A' for Active; 'I' for Inactive)
REMARK    1  A    between atoms: C_2  and  C_3
REMARK    2  A    between atoms: C_2  and  C_4
REMARK    3  A    between atoms: C_3  and  C_5
REMARK    4  A    between atoms: C_4  and  C_6
REMARK    5  A    between atoms: C_5  and  C_7
REMARK    6  A    between atoms: C_6  and  C_8
REMARK    7  A    between atoms: C_7  and  C_9
REMARK    8  A    between atoms: C_9  and  C_10
REMARK                            x       y       z     vdW  Elec       q    Type
REMARK                         _______ _______ _______ _____ _____    ______ ____
ROOT
ATOM      1  C   UNL     1       0.594  -5.994  15.113  0.00  0.00    +0.000 C 
ATOM      2  H   UNL     1       0.345  -5.852  14.055  0.00  0.00    +0.000 HD
ATOM      3  H   UNL     1       1.573  -6.487  15.152  0.00  0.00    +0.000 HD
ENDROOT
BRANCH   1   4
ATOM      4  C   UNL     1       0.675  -4.635  15.812  0.00  0.00    +0.000 C 
ATOM      5  H   UNL     1       0.301  -4.727  16.839  0.00  0.00    +0.000 HD
ATOM      6  H   UNL     1       0.026  -3.919  15.294  0.00  0.00    +0.000 HD
BRANCH   4   7
ATOM      7  C   UNL     1       2.109  -4.105  15.831  0.00  0.00    +0.000 C 
ATOM      8  H   UNL     1       2.799  -4.894  15.506  0.00  0.00    +0.000 HD
ATOM      9  H   UNL     1       2.387  -3.836  16.858  0.00  0.00    +0.000 HD
BRANCH   7  10
ATOM     10  C   UNL     1       2.263  -2.887  14.922  0.00  0.00    +0.000 C 
ATOM     11  H   UNL     1       1.782  -2.016  15.381  0.00  0.00    +0.000 HD
ATOM     12  H   UNL     1       1.759  -3.069  13.965  0.00  0.00    +0.000 HD
BRANCH  10  13
ATOM     13  C   UNL     1       3.727  -2.566  14.662  0.00  0.00    +0.000 C 
ATOM     14  H   UNL     1       4.138  -1.937  15.458  0.00  0.00    +0.000 HD
ATOM     15  H   UNL     1       3.850  -2.041  13.710  0.00  0.00    +0.000 HD
ATOM     16  H   UNL     1       4.315  -3.488  14.620  0.00  0.00    +0.000 HD
ENDBRANCH  10  13
ENDBRANCH   7  10
ENDBRANCH   4   7
ENDBRANCH   1   4
BRANCH   1  17
ATOM     17  C   UNL     1      -0.460  -6.893  15.768  0.00  0.00    +0.000 C 
ATOM     18  H   UNL     1      -1.448  -6.659  15.352  0.00  0.00    +0.000 HD
ATOM     19  H   UNL     1      -0.253  -7.939  15.513  0.00  0.00    +0.000 HD
BRANCH  17  20
ATOM     20  C   UNL     1      -0.500  -6.736  17.284  0.00  0.00    +0.000 C 
ATOM     21  H   UNL     1      -0.105  -5.754  17.569  0.00  0.00    +0.000 HD
ATOM     22  H   UNL     1      -1.535  -6.809  17.637  0.00  0.00    +0.000 HD
BRANCH  20  24
ATOM     23  O   UNL     1       1.237  -7.474  18.762  0.00  0.00    +0.000 OA
ATOM     24  C   UNL     1       0.314  -7.788  18.011  0.00  0.00    +0.000 C 
BRANCH  24  25
ATOM     25  C   UNL     1      -0.037  -9.232  17.767  0.00  0.00    +0.000 C 
ATOM     26  H   UNL     1       0.725  -9.879  18.211  0.00  0.00    +0.000 HD
ATOM     27  H   UNL     1      -0.080  -9.421  16.691  0.00  0.00    +0.000 HD
ATOM     28  H   UNL     1      -1.003  -9.456  18.227  0.00  0.00    +0.000 HD
ENDBRANCH  24  25
ENDBRANCH  20  24
ENDBRANCH  17  20
ENDBRANCH   1  17
TORSDOF 8
ENDMDL
MODEL 3
REMARK VINA RESULT:    -4.270     15.938     17.503
REMARK INTER + INTRA:          -6.530
REMARK INTER:                  -5.954
REMARK INTRA:                  -0.576
REMARK UNBOUND:                -0.512
REMARK  Name = 13187
REMARK  8 active torsions:
REMARK  status: ('A' for Active; 'I' for Inactive)
REMARK    1  A    between atoms: C_2  and  C_3
REMARK    2  A    between atoms: C_2  and  C_4
REMARK    3  A    between atoms: C_3  and  C_5
REMARK    4  A    between atoms: C_4  and  C_6
REMARK    5  A    between atoms: C_5  and  C_7
REMARK    6  A    between atoms: C_6  and  C_8
REMARK    7  A    between atoms: C_7  and  C_9
REMARK    8  A    between atoms: C_9  and  C_10
REMARK                            x       y       z     vdW  Elec       q    Type
REMARK                         _______ _______ _______ _____ _____    ______ ____
ROOT
ATOM      1  C   UNL     1       0.238  -6.446  15.278  0.00  0.00    +0.000 C 
ATOM      2  H   UNL     1       0.674  -6.243  14.293  0.00  0.00    +0.000 HD
ATOM      3  H   UNL     1      -0.821  -6.682  15.122  0.00  0.00    +0.000 HD
ENDROOT
BRANCH   1   4
ATOM      4  C   UNL     1       0.942  -7.645  15.918  0.00  0.00    +0.000 C 
ATOM      5  H   UNL     1       0.347  -8.552  15.752  0.00  0.00    +0.000 HD
ATOM      6  H   UNL     1       1.007  -7.495  17.002  0.00  0.00    +0.000 HD
BRANCH   4   7
ATOM      7  C   UNL     1       2.345  -7.838  15.342  0.00  0.00    +0.000 C 
ATOM      8  H   UNL     1       2.623  -8.898  15.393  0.00  0.00    +0.000 HD
ATOM      9  H   UNL     1       3.070  -7.283  15.950  0.00  0.00    +0.000 HD
BRANCH   7  10
ATOM     10  C   UNL     1       2.420  -7.361  13.892  0.00  0.00    +0.000 C 
ATOM     11  H   UNL     1       2.927  -6.391  13.844  0.00  0.00    +0.000 HD
ATOM     12  H   UNL     1       1.409  -7.219  13.493  0.00  0.00    +0.000 HD
BRANCH  10  13
ATOM     13  C   UNL     1       3.168  -8.355  13.016  0.00  0.00    +0.000 C 
ATOM     14  H   UNL     1       2.487  -8.851  12.317  0.00  0.00    +0.000 HD
ATOM     15  H   UNL     1       3.656  -9.123  13.624  0.00  0.00    +0.000 HD
ATOM     16  H   UNL     1       3.939  -7.842  12.433  0.00  0.00    +0.000 HD
ENDBRANCH  10  13
ENDBRANCH   7  10
ENDBRANCH   4   7
ENDBRANCH   1   4
BRANCH   1  17
ATOM     17  C   UNL     1       0.362  -5.197  16.157  0.00  0.00    +0.000 C 
ATOM     18  H   UNL     1      -0.637  -4.876  16.478  0.00  0.00    +0.000 HD
ATOM     19  H   UNL     1       0.917  -5.449  17.069  0.00  0.00    +0.000 HD
BRANCH  17  20
ATOM     20  C   UNL     1       1.056  -4.044  15.439  0.00  0.00    +0.000 C 
ATOM     21  H   UNL     1       0.957  -4.166  14.354  0.00  0.00    +0.000 HD
ATOM     22  H   UNL     1       0.590  -3.095  15.726  0.00  0.00    +0.000 HD
BRANCH  20  24
ATOM     23  O   UNL     1       3.031  -4.610  16.673  0.00  0.00    +0.000 OA
ATOM     24  C   UNL     1       2.534  -3.951  15.759  0.00  0.00    +0.000 C 
BRANCH  24  25
ATOM     25  C   UNL     1       3.370  -3.010  14.932  0.00  0.00    +0.000 C 
ATOM     26  H   UNL     1       2.950  -2.931  13.925  0.00  0.00    +0.000 HD
ATOM     27  H   UNL     1       4.391  -3.394  14.862  0.00  0.00    +0.000 HD
ATOM     28  H   UNL     1       3.371  -2.020  15.394  0.00  0.00    +0.000 HD
ENDBRANCH  24  25
ENDBRANCH  20  24
ENDBRANCH  17  20
ENDBRANCH   1  17
TORSDOF 8
ENDMDL
MODEL 4
REMARK VINA RESULT:    -4.232      1.521      2.612
REMARK INTER + INTRA:          -6.476
REMARK INTER:                  -6.127
REMARK INTRA:                  -0.349
REMARK UNBOUND:                -0.512
REMARK  Name = 13187
REMARK  8 active torsions:
REMARK  status: ('A' for Active; 'I' for Inactive)
REMARK    1  A    between atoms: C_2  and  C_3
REMARK    2  A    between atoms: C_2  and  C_4
REMARK    3  A    between atoms: C_3  and  C_5
REMARK    4  A    between atoms: C_4  and  C_6
REMARK    5  A    between atoms: C_5  and  C_7
REMARK    6  A    between atoms: C_6  and  C_8
REMARK    7  A    between atoms: C_7  and  C_9
REMARK    8  A    between atoms: C_9  and  C_10
REMARK                            x       y       z     vdW  Elec       q    Type
REMARK                         _______ _______ _______ _____ _____    ______ ____
ROOT
ATOM      1  C   UNL     1       6.809  -3.318   0.525  0.00  0.00    +0.000 C 
ATOM      2  H   UNL     1       7.406  -4.179   0.846  0.00  0.00    +0.000 HD
ATOM      3  H   UNL     1       6.597  -3.449  -0.543  0.00  0.00    +0.000 HD
ENDROOT
BRANCH   1   4
ATOM      4  C   UNL     1       5.493  -3.280   1.306  0.00  0.00    +0.000 C 
ATOM      5  H   UNL     1       5.351  -2.283   1.740  0.00  0.00    +0.000 HD
ATOM      6  H   UNL     1       5.544  -3.991   2.140  0.00  0.00    +0.000 HD
BRANCH   4   7
ATOM      7  C   UNL     1       4.304  -3.626   0.410  0.00  0.00    +0.000 C 
ATOM      8  H   UNL     1       3.370  -3.508   0.973  0.00  0.00    +0.000 HD
ATOM      9  H   UNL     1       4.368  -4.678   0.106  0.00  0.00    +0.000 HD
BRANCH   7  10
ATOM     10  C   UNL     1       4.267  -2.735  -0.831  0.00  0.00    +0.000 C 
ATOM     11  H   UNL     1       4.511  -3.326  -1.722  0.00  0.00    +0.000 HD
ATOM     12  H   UNL     1       5.024  -1.947  -0.747  0.00  0.00    +0.000 HD
BRANCH  10  13
ATOM     13  C   UNL     1       2.899  -2.097  -1.018  0.00  0.00    +0.000 C 
ATOM     14  H   UNL     1       2.724  -1.848  -2.070  0.00  0.00    +0.000 HD
ATOM     15  H   UNL     1       2.811  -1.180  -0.428  0.00  0.00    +0.000 HD
ATOM     16  H   UNL     1       2.112  -2.786  -0.697  0.00  0.00    +0.000 HD
ENDBRANCH  10  13
ENDBRANCH   7  10
ENDBRANCH   4   7
ENDBRANCH   1   4
BRANCH   1  17
ATOM     17  C   UNL     1       7.615  -2.033   0.734  0.00  0.00    +0.000 C 
ATOM     18  H   UNL     1       6.999  -1.298   1.268  0.00  0.00    +0.000 HD
ATOM     19  H   UNL     1       8.477  -2.246   1.379  0.00  0.00    +0.000 HD
BRANCH  17  20
ATOM     20  C   UNL     1       8.099  -1.427  -0.579  0.00  0.00    +0.000 C 
ATOM     21  H   UNL     1       7.443  -1.739  -1.400  0.00  0.00    +0.000 HD
ATOM     22  H   UNL     1       8.076  -0.333  -0.513  0.00  0.00    +0.000 HD
BRANCH  20  24
ATOM     23  O   UNL     1      10.401  -1.879  -0.085  0.00  0.00    +0.000 OA
ATOM     24  C   UNL     1       9.513  -1.840  -0.937  0.00  0.00    +0.000 C 
BRANCH  24  25
ATOM     25  C   UNL     1       9.796  -2.185  -2.376  0.00  0.00    +0.000 C 
ATOM     26  H   UNL     1       9.440  -3.196  -2.591  0.00  0.00    +0.000 HD
ATOM     27  H   UNL     1      10.873  -2.141  -2.556  0.00  0.00    +0.000 HD
ATOM     28  H   UNL     1       9.276  -1.479  -3.029  0.00  0.00    +0.000 HD
ENDBRANCH  24  25
ENDBRANCH  20  24
ENDBRANCH  17  20
ENDBRANCH   1  17
TORSDOF 8
ENDMDL
MODEL 5
REMARK VINA RESULT:    -4.184     16.493     18.456
REMARK INTER + INTRA:          -6.409
REMARK INTER:                  -6.172
REMARK INTRA:                  -0.237
REMARK UNBOUND:                -0.512
REMARK  Name = 13187
REMARK  8 active torsions:
REMARK  status: ('A' for Active; 'I' for Inactive)
REMARK    1  A    between atoms: C_2  and  C_3
REMARK    2  A    between atoms: C_2  and  C_4
REMARK    3  A    between atoms: C_3  and  C_5
REMARK    4  A    between atoms: C_4  and  C_6
REMARK    5  A    between atoms: C_5  and  C_7
REMARK    6  A    between atoms: C_6  and  C_8
REMARK    7  A    between atoms: C_7  and  C_9
REMARK    8  A    between atoms: C_9  and  C_10
REMARK                            x       y       z     vdW  Elec       q    Type
REMARK                         _______ _______ _______ _____ _____    ______ ____
ROOT
ATOM      1  C   UNL     1       0.938  -5.971  16.452  0.00  0.00    +0.000 C 
ATOM      2  H   UNL     1       0.859  -5.814  17.534  0.00  0.00    +0.000 HD
ATOM      3  H   UNL     1       1.936  -6.379  16.255  0.00  0.00    +0.000 HD
ENDROOT
BRANCH   1   4
ATOM      4  C   UNL     1      -0.125  -6.973  15.997  0.00  0.00    +0.000 C 
ATOM      5  H   UNL     1       0.241  -7.527  15.124  0.00  0.00    +0.000 HD
ATOM      6  H   UNL     1      -1.026  -6.432  15.681  0.00  0.00    +0.000 HD
BRANCH   4   7
ATOM      7  C   UNL     1      -0.481  -7.952  17.116  0.00  0.00    +0.000 C 
ATOM      8  H   UNL     1      -0.609  -8.958  16.700  0.00  0.00    +0.000 HD
ATOM      9  H   UNL     1      -1.440  -7.663  17.565  0.00  0.00    +0.000 HD
BRANCH   7  10
ATOM     10  C   UNL     1       0.602  -7.981  18.194  0.00  0.00    +0.000 C 
ATOM     11  H   UNL     1       1.284  -7.133  18.060  0.00  0.00    +0.000 HD
ATOM     12  H   UNL     1       1.200  -8.895  18.098  0.00  0.00    +0.000 HD
BRANCH  10  13
ATOM     13  C   UNL     1       0.002  -7.919  19.590  0.00  0.00    +0.000 C 
ATOM     14  H   UNL     1      -1.026  -7.545  19.558  0.00  0.00    +0.000 HD
ATOM     15  H   UNL     1       0.587  -7.262  20.240  0.00  0.00    +0.000 HD
ATOM     16  H   UNL     1      -0.014  -8.917  20.040  0.00  0.00    +0.000 HD
ENDBRANCH  10  13
ENDBRANCH   7  10
ENDBRANCH   4   7
ENDBRANCH   1   4
BRANCH   1  17
ATOM     17  C   UNL     1       0.781  -4.629  15.730  0.00  0.00    +0.000 C 
ATOM     18  H   UNL     1      -0.170  -4.619  15.182  0.00  0.00    +0.000 HD
ATOM     19  H   UNL     1       0.722  -3.823  16.472  0.00  0.00    +0.000 HD
BRANCH  17  20
ATOM     20  C   UNL     1       1.926  -4.349  14.762  0.00  0.00    +0.000 C 
ATOM     21  H   UNL     1       2.823  -4.894  15.076  0.00  0.00    +0.000 HD
ATOM     22  H   UNL     1       1.650  -4.683  13.756  0.00  0.00    +0.000 HD
BRANCH  20  24
ATOM     23  O   UNL     1       1.415  -2.012  14.602  0.00  0.00    +0.000 OA
ATOM     24  C   UNL     1       2.286  -2.878  14.681  0.00  0.00    +0.000 C 
BRANCH  24  25
ATOM     25  C   UNL     1       3.748  -2.518  14.682  0.00  0.00    +0.000 C 
ATOM     26  H   UNL     1       3.947  -1.776  13.903  0.00  0.00    +0.000 HD
ATOM     27  H   UNL     1       4.345  -3.412  14.483  0.00  0.00    +0.000 HD
ATOM     28  H   UNL     1       4.019  -2.092  15.652  0.00  0.00    +0.000 HD
ENDBRANCH  24  25
ENDBRANCH  20  24
ENDBRANCH  17  20
ENDBRANCH   1  17
TORSDOF 8
ENDMDL
MODEL 6
REMARK VINA RESULT:    -3.851     14.055     15.105
REMARK INTER + INTRA:          -5.939
REMARK INTER:                  -5.488
REMARK INTRA:                  -0.451
REMARK UNBOUND:                -0.512
REMARK  Name = 13187
REMARK  8 active torsions:
REMARK  status: ('A' for Active; 'I' for Inactive)
REMARK    1  A    between atoms: C_2  and  C_3
REMARK    2  A    between atoms: C_2  and  C_4
REMARK    3  A    between atoms: C_3  and  C_5
REMARK    4  A    between atoms: C_4  and  C_6
REMARK    5  A    between atoms: C_5  and  C_7
REMARK    6  A    between atoms: C_6  and  C_8
REMARK    7  A    between atoms: C_7  and  C_9
REMARK    8  A    between atoms: C_9  and  C_10
REMARK                            x       y       z     vdW  Elec       q    Type
REMARK                         _______ _______ _______ _____ _____    ______ ____
ROOT
ATOM      1  C   UNL     1      -4.892  -6.896 -10.516  0.00  0.00    +0.000 C 
ATOM      2  H   UNL     1      -5.033  -7.957 -10.755  0.00  0.00    +0.000 HD
ATOM      3  H   UNL     1      -4.740  -6.367 -11.464  0.00  0.00    +0.000 HD
ENDROOT
BRANCH   1   4
ATOM      4  C   UNL     1      -6.141  -6.353  -9.819  0.00  0.00    +0.000 C 
ATOM      5  H   UNL     1      -6.964  -7.070  -9.927  0.00  0.00    +0.000 HD
ATOM      6  H   UNL     1      -6.456  -5.423 -10.307  0.00  0.00    +0.000 HD
BRANCH   4   7
ATOM      7  C   UNL     1      -5.880  -6.089  -8.336  0.00  0.00    +0.000 C 
ATOM      8  H   UNL     1      -5.543  -5.055  -8.198  0.00  0.00    +0.000 HD
ATOM      9  H   UNL     1      -5.072  -6.743  -7.984  0.00  0.00    +0.000 HD
BRANCH   7  10
ATOM     10  C   UNL     1      -7.137  -6.330  -7.499  0.00  0.00    +0.000 C 
ATOM     11  H   UNL     1      -6.883  -6.315  -6.433  0.00  0.00    +0.000 HD
ATOM     12  H   UNL     1      -7.548  -7.323  -7.721  0.00  0.00    +0.000 HD
BRANCH  10  13
ATOM     13  C   UNL     1      -8.199  -5.277  -7.773  0.00  0.00    +0.000 C 
ATOM     14  H   UNL     1      -8.369  -5.162  -8.848  0.00  0.00    +0.000 HD
ATOM     15  H   UNL     1      -7.901  -4.305  -7.366  0.00  0.00    +0.000 HD
ATOM     16  H   UNL     1      -9.147  -5.565  -7.307  0.00  0.00    +0.000 HD
ENDBRANCH  10  13
ENDBRANCH   7  10
ENDBRANCH   4   7
ENDBRANCH   1   4
BRANCH   1  17
ATOM     17  C   UNL     1      -3.650  -6.734  -9.633  0.00  0.00    +0.000 C 
ATOM     18  H   UNL     1      -2.997  -5.962 -10.060  0.00  0.00    +0.000 HD
ATOM     19  H   UNL     1      -3.954  -6.374  -8.642  0.00  0.00    +0.000 HD
BRANCH  17  20
ATOM     20  C   UNL     1      -2.865  -8.033  -9.485  0.00  0.00    +0.000 C 
ATOM     21  H   UNL     1      -2.436  -8.323 -10.451  0.00  0.00    +0.000 HD
ATOM     22  H   UNL     1      -2.048  -7.892  -8.769  0.00  0.00    +0.000 HD
BRANCH  20  24
ATOM     23  O   UNL     1      -4.149  -9.216  -7.842  0.00  0.00    +0.000 OA
ATOM     24  C   UNL     1      -3.717  -9.187  -8.995  0.00  0.00    +0.000 C 
BRANCH  24  25
ATOM     25  C   UNL     1      -4.000 -10.306  -9.963  0.00  0.00    +0.000 C 
ATOM     26  H   UNL     1      -5.080 -10.421 -10.088  0.00  0.00    +0.000 HD
ATOM     27  H   UNL     1      -3.586 -11.240  -9.573  0.00  0.00    +0.000 HD
ATOM     28  H   UNL     1      -3.554 -10.071 -10.932  0.00  0.00    +0.000 HD
ENDBRANCH  24  25
ENDBRANCH  20  24
ENDBRANCH  17  20
ENDBRANCH   1  17
TORSDOF 8
ENDMDL
MODEL 7
REMARK VINA RESULT:    -3.809     14.092     15.147
REMARK INTER + INTRA:          -5.879
REMARK INTER:                  -5.215
REMARK INTRA:                  -0.664
REMARK UNBOUND:                -0.512
REMARK  Name = 13187
REMARK  8 active torsions:
REMARK  status: ('A' for Active; 'I' for Inactive)
REMARK    1  A    between atoms: C_2  and  C_3
REMARK    2  A    between atoms: C_2  and  C_4
REMARK    3  A    between atoms: C_3  and  C_5
REMARK    4  A    between atoms: C_4  and  C_6
REMARK    5  A    between atoms: C_5  and  C_7
REMARK    6  A    between atoms: C_6  and  C_8
REMARK    7  A    between atoms: C_7  and  C_9
REMARK    8  A    between atoms: C_9  and  C_10
REMARK                            x       y       z     vdW  Elec       q    Type
REMARK                         _______ _______ _______ _____ _____    ______ ____
ROOT
ATOM      1  C   UNL     1      -6.061  -6.084  -8.273  0.00  0.00    +0.000 C 
ATOM      2  H   UNL     1      -5.310  -5.439  -7.803  0.00  0.00    +0.000 HD
ATOM      3  H   UNL     1      -6.855  -5.432  -8.657  0.00  0.00    +0.000 HD
ENDROOT
BRANCH   1   4
ATOM      4  C   UNL     1      -5.426  -6.856  -9.432  0.00  0.00    +0.000 C 
ATOM      5  H   UNL     1      -5.958  -6.626 -10.363  0.00  0.00    +0.000 HD
ATOM      6  H   UNL     1      -5.535  -7.933  -9.256  0.00  0.00    +0.000 HD
BRANCH   4   7
ATOM      7  C   UNL     1      -3.945  -6.510  -9.585  0.00  0.00    +0.000 C 
ATOM      8  H   UNL     1      -3.657  -5.774  -8.824  0.00  0.00    +0.000 HD
ATOM      9  H   UNL     1      -3.777  -6.045 -10.565  0.00  0.00    +0.000 HD
BRANCH   7  10
ATOM     10  C   UNL     1      -3.067  -7.753  -9.450  0.00  0.00    +0.000 C 
ATOM     11  H   UNL     1      -3.161  -8.167  -8.439  0.00  0.00    +0.000 HD
ATOM     12  H   UNL     1      -2.013  -7.484  -9.593  0.00  0.00    +0.000 HD
BRANCH  10  13
ATOM     13  C   UNL     1      -3.452  -8.821 -10.462  0.00  0.00    +0.000 C 
ATOM     14  H   UNL     1      -2.586  -9.123 -11.060  0.00  0.00    +0.000 HD
ATOM     15  H   UNL     1      -4.229  -8.456 -11.141  0.00  0.00    +0.000 HD
ATOM     16  H   UNL     1      -3.837  -9.708  -9.949  0.00  0.00    +0.000 HD
ENDBRANCH  10  13
ENDBRANCH   7  10
ENDBRANCH   4   7
ENDBRANCH   1   4
BRANCH   1  17
ATOM     17  C   UNL     1      -6.643  -7.037  -7.224  0.00  0.00    +0.000 C 
ATOM     18  H   UNL     1      -6.190  -6.824  -6.247  0.00  0.00    +0.000 HD
ATOM     19  H   UNL     1      -7.718  -6.847  -7.119  0.00  0.00    +0.000 HD
BRANCH  17  20
ATOM     20  C   UNL     1      -6.415  -8.503  -7.578  0.00  0.00    +0.000 C 
ATOM     21  H   UNL     1      -7.373  -9.034  -7.604  0.00  0.00    +0.000 HD
ATOM     22  H   UNL     1      -5.949  -8.578  -8.566  0.00  0.00    +0.000 HD
BRANCH  20  24
ATOM     23  O   UNL     1      -5.573  -8.970  -5.383  0.00  0.00    +0.000 OA
ATOM     24  C   UNL     1      -5.519  -9.219  -6.587  0.00  0.00    +0.000 C 
BRANCH  24  25
ATOM     25  C   UNL     1      -4.548 -10.234  -7.132  0.00  0.00    +0.000 C 
ATOM     26  H   UNL     1      -4.417 -11.045  -6.409  0.00  0.00    +0.000 HD
ATOM     27  H   UNL     1      -3.581  -9.756  -7.309  0.00  0.00    +0.000 HD
ATOM     28  H   UNL     1      -4.939 -10.650  -8.064  0.00  0.00    +0.000 HD
ENDBRANCH  24  25
ENDBRANCH  20  24
ENDBRANCH  17  20
ENDBRANCH   1  17
TORSDOF 8
ENDMDL
MODEL 8
REMARK VINA RESULT:    -3.783     14.244     15.158
REMARK INTER + INTRA:          -5.843
REMARK INTER:                  -5.107
REMARK INTRA:                  -0.735
REMARK UNBOUND:                -0.512
REMARK  Name = 13187
REMARK  8 active torsions:
REMARK  status: ('A' for Active; 'I' for Inactive)
REMARK    1  A    between atoms: C_2  and  C_3
REMARK    2  A    between atoms: C_2  and  C_4
REMARK    3  A    between atoms: C_3  and  C_5
REMARK    4  A    between atoms: C_4  and  C_6
REMARK    5  A    between atoms: C_5  and  C_7
REMARK    6  A    between atoms: C_6  and  C_8
REMARK    7  A    between atoms: C_7  and  C_9
REMARK    8  A    between atoms: C_9  and  C_10
REMARK                            x       y       z     vdW  Elec       q    Type
REMARK                         _______ _______ _______ _____ _____    ______ ____
ROOT
ATOM      1  C   UNL     1      -3.707  -9.647  -9.962  0.00  0.00    +0.000 C 
ATOM      2  H   UNL     1      -4.545  -9.368 -10.611  0.00  0.00    +0.000 HD
ATOM      3  H   UNL     1      -3.007 -10.235 -10.568  0.00  0.00    +0.000 HD
ENDROOT
BRANCH   1   4
ATOM      4  C   UNL     1      -3.007  -8.386  -9.451  0.00  0.00    +0.000 C 
ATOM      5  H   UNL     1      -1.931  -8.454  -9.651  0.00  0.00    +0.000 HD
ATOM      6  H   UNL     1      -3.130  -8.315  -8.363  0.00  0.00    +0.000 HD
BRANCH   4   7
ATOM      7  C   UNL     1      -3.575  -7.129 -10.112  0.00  0.00    +0.000 C 
ATOM      8  H   UNL     1      -3.971  -7.381 -11.104  0.00  0.00    +0.000 HD
ATOM      9  H   UNL     1      -2.771  -6.398 -10.261  0.00  0.00    +0.000 HD
BRANCH   7  10
ATOM     10  C   UNL     1      -4.684  -6.508  -9.264  0.00  0.00    +0.000 C 
ATOM     11  H   UNL     1      -4.486  -5.440  -9.116  0.00  0.00    +0.000 HD
ATOM     12  H   UNL     1      -4.701  -6.975  -8.272  0.00  0.00    +0.000 HD
BRANCH  10  13
ATOM     13  C   UNL     1      -6.046  -6.674  -9.918  0.00  0.00    +0.000 C 
ATOM     14  H   UNL     1      -6.054  -7.536 -10.593  0.00  0.00    +0.000 HD
ATOM     15  H   UNL     1      -6.316  -5.784 -10.494  0.00  0.00    +0.000 HD
ATOM     16  H   UNL     1      -6.816  -6.833  -9.156  0.00  0.00    +0.000 HD
ENDBRANCH  10  13
ENDBRANCH   7  10
ENDBRANCH   4   7
ENDBRANCH   1   4
BRANCH   1  17
ATOM     17  C   UNL     1      -4.225 -10.502  -8.801  0.00  0.00    +0.000 C 
ATOM     18  H   UNL     1      -5.292 -10.712  -8.950  0.00  0.00    +0.000 HD
ATOM     19  H   UNL     1      -3.712 -11.472  -8.808  0.00  0.00    +0.000 HD
BRANCH  17  20
ATOM     20  C   UNL     1      -4.027  -9.830  -7.446  0.00  0.00    +0.000 C 
ATOM     21  H   UNL     1      -3.445 -10.484  -6.786  0.00  0.00    +0.000 HD
ATOM     22  H   UNL     1      -3.478  -8.891  -7.576  0.00  0.00    +0.000 HD
BRANCH  20  24
ATOM     23  O   UNL     1      -5.357  -9.193  -5.557  0.00  0.00    +0.000 OA
ATOM     24  C   UNL     1      -5.333  -9.512  -6.746  0.00  0.00    +0.000 C 
BRANCH  24  25
ATOM     25  C   UNL     1      -6.600  -9.618  -7.552  0.00  0.00    +0.000 C 
ATOM     26  H   UNL     1      -7.465  -9.444  -6.906  0.00  0.00    +0.000 HD
ATOM     27  H   UNL     1      -6.676 -10.619  -7.984  0.00  0.00    +0.000 HD
ATOM     28  H   UNL     1      -6.593  -8.865  -8.345  0.00  0.00    +0.000 HD
ENDBRANCH  24  25
ENDBRANCH  20  24
ENDBRANCH  17  20
ENDBRANCH   1  17
TORSDOF 8
ENDMDL
MODEL 9
REMARK VINA RESULT:    -3.709     16.638     18.354
REMARK INTER + INTRA:          -5.739
REMARK INTER:                  -5.015
REMARK INTRA:                  -0.724
REMARK UNBOUND:                -0.512
REMARK  Name = 13187
REMARK  8 active torsions:
REMARK  status: ('A' for Active; 'I' for Inactive)
REMARK    1  A    between atoms: C_2  and  C_3
REMARK    2  A    between atoms: C_2  and  C_4
REMARK    3  A    between atoms: C_3  and  C_5
REMARK    4  A    between atoms: C_4  and  C_6
REMARK    5  A    between atoms: C_5  and  C_7
REMARK    6  A    between atoms: C_6  and  C_8
REMARK    7  A    between atoms: C_7  and  C_9
REMARK    8  A    between atoms: C_9  and  C_10
REMARK                            x       y       z     vdW  Elec       q    Type
REMARK                         _______ _______ _______ _____ _____    ______ ____
ROOT
ATOM      1  C   UNL     1      -0.007  -6.485  15.320  0.00  0.00    +0.000 C 
ATOM      2  H   UNL     1       0.494  -7.460  15.312  0.00  0.00    +0.000 HD
ATOM      3  H   UNL     1      -0.799  -6.521  14.563  0.00  0.00    +0.000 HD
ENDROOT
BRANCH   1   4
ATOM      4  C   UNL     1      -0.625  -6.233  16.697  0.00  0.00    +0.000 C 
ATOM      5  H   UNL     1      -1.719  -6.211  16.612  0.00  0.00    +0.000 HD
ATOM      6  H   UNL     1      -0.310  -5.249  17.065  0.00  0.00    +0.000 HD
BRANCH   4   7
ATOM      7  C   UNL     1      -0.209  -7.311  17.699  0.00  0.00    +0.000 C 
ATOM      8  H   UNL     1      -1.073  -7.602  18.308  0.00  0.00    +0.000 HD
ATOM      9  H   UNL     1       0.547  -6.904  18.382  0.00  0.00    +0.000 HD
BRANCH   7  10
ATOM     10  C   UNL     1       0.351  -8.543  16.988  0.00  0.00    +0.000 C 
ATOM     11  H   UNL     1       0.313  -8.396  15.902  0.00  0.00    +0.000 HD
ATOM     12  H   UNL     1      -0.265  -9.420  17.219  0.00  0.00    +0.000 HD
BRANCH  10  13
ATOM     13  C   UNL     1       1.789  -8.819  17.401  0.00  0.00    +0.000 C 
ATOM     14  H   UNL     1       2.448  -8.852  16.527  0.00  0.00    +0.000 HD
ATOM     15  H   UNL     1       1.868  -9.775  17.928  0.00  0.00    +0.000 HD
ATOM     16  H   UNL     1       2.149  -8.031  18.070  0.00  0.00    +0.000 HD
ENDBRANCH  10  13
ENDBRANCH   7  10
ENDBRANCH   4   7
ENDBRANCH   1   4
BRANCH   1  17
ATOM     17  C   UNL     1       1.002  -5.391  14.957  0.00  0.00    +0.000 C 
ATOM     18  H   UNL     1       0.629  -4.822  14.096  0.00  0.00    +0.000 HD
ATOM     19  H   UNL     1       1.083  -4.682  15.789  0.00  0.00    +0.000 HD
BRANCH  17  20
ATOM     20  C   UNL     1       2.381  -5.955  14.631  0.00  0.00    +0.000 C 
ATOM     21  H   UNL     1       2.365  -7.048  14.702  0.00  0.00    +0.000 HD
ATOM     22  H   UNL     1       2.662  -5.677  13.609  0.00  0.00    +0.000 HD
BRANCH  20  24
ATOM     23  O   UNL     1       4.606  -5.234  15.157  0.00  0.00    +0.000 OA
ATOM     24  C   UNL     1       3.464  -5.447  15.563  0.00  0.00    +0.000 C 
BRANCH  24  25
ATOM     25  C   UNL     1       3.095  -5.231  17.007  0.00  0.00    +0.000 C 
ATOM     26  H   UNL     1       3.319  -4.200  17.295  0.00  0.00    +0.000 HD
ATOM     27  H   UNL     1       3.675  -5.910  17.638  0.00  0.00    +0.000 HD
ATOM     28  H   UNL     1       2.026  -5.412  17.142  0.00  0.00    +0.000 HD
ENDBRANCH  24  25
ENDBRANCH  20  24
ENDBRANCH  17  20
ENDBRANCH   1  17
TORSDOF 8
ENDMDL
MODEL 10
REMARK VINA RESULT:    -3.661      9.147     10.313
REMARK INTER + INTRA:          -5.671
REMARK INTER:                  -5.159
REMARK INTRA:                  -0.512
REMARK UNBOUND:                -0.512
REMARK  Name = 13187
REMARK  8 active torsions:
REMARK  status: ('A' for Active; 'I' for Inactive)
REMARK    1  A    between atoms: C_2  and  C_3
REMARK    2  A    between atoms: C_2  and  C_4
REMARK    3  A    between atoms: C_3  and  C_5
REMARK    4  A    between atoms: C_4  and  C_6
REMARK    5  A    between atoms: C_5  and  C_7
REMARK    6  A    between atoms: C_6  and  C_8
REMARK    7  A    between atoms: C_7  and  C_9
REMARK    8  A    between atoms: C_9  and  C_10
REMARK                            x       y       z     vdW  Elec       q    Type
REMARK                         _______ _______ _______ _____ _____    ______ ____
ROOT
ATOM      1  C   UNL     1      12.982  -9.932  -3.022  0.00  0.00    +0.000 C 
ATOM      2  H   UNL     1      13.641  -9.239  -3.558  0.00  0.00    +0.000 HD
ATOM      3  H   UNL     1      13.361 -10.012  -1.996  0.00  0.00    +0.000 HD
ENDROOT
BRANCH   1   4
ATOM      4  C   UNL     1      11.556  -9.377  -3.001  0.00  0.00    +0.000 C 
ATOM      5  H   UNL     1      10.879 -10.083  -3.496  0.00  0.00    +0.000 HD
ATOM      6  H   UNL     1      11.520  -8.441  -3.571  0.00  0.00    +0.000 HD
BRANCH   4   7
ATOM      7  C   UNL     1      11.080  -9.124  -1.570  0.00  0.00    +0.000 C 
ATOM      8  H   UNL     1      10.732  -8.088  -1.475  0.00  0.00    +0.000 HD
ATOM      9  H   UNL     1      11.920  -9.249  -0.877  0.00  0.00    +0.000 HD
BRANCH   7  10
ATOM     10  C   UNL     1       9.949 -10.078  -1.185  0.00  0.00    +0.000 C 
ATOM     11  H   UNL     1      10.297 -10.775  -0.413  0.00  0.00    +0.000 HD
ATOM     12  H   UNL     1       9.654 -10.678  -2.054  0.00  0.00    +0.000 HD
BRANCH  10  13
ATOM     13  C   UNL     1       8.736  -9.323  -0.663  0.00  0.00    +0.000 C 
ATOM     14  H   UNL     1       8.225  -9.896   0.117  0.00  0.00    +0.000 HD
ATOM     15  H   UNL     1       8.022  -9.125  -1.468  0.00  0.00    +0.000 HD
ATOM     16  H   UNL     1       9.043  -8.363  -0.235  0.00  0.00    +0.000 HD
ENDBRANCH  10  13
ENDBRANCH   7  10
ENDBRANCH   4   7
ENDBRANCH   1   4
BRANCH   1  17
ATOM     17  C   UNL     1      13.032 -11.307  -3.696  0.00  0.00    +0.000 C 
ATOM     18  H   UNL     1      13.883 -11.343  -4.388  0.00  0.00    +0.000 HD
ATOM     19  H   UNL     1      13.214 -12.077  -2.936  0.00  0.00    +0.000 HD
BRANCH  17  20
ATOM     20  C   UNL     1      11.749 -11.632  -4.455  0.00  0.00    +0.000 C 
ATOM     21  H   UNL     1      10.990 -10.869  -4.251  0.00  0.00    +0.000 HD
ATOM     22  H   UNL     1      11.950 -11.644  -5.532  0.00  0.00    +0.000 HD
BRANCH  20  24
ATOM     23  O   UNL     1      11.771 -14.024  -4.301  0.00  0.00    +0.000 OA
ATOM     24  C   UNL     1      11.163 -12.978  -4.077  0.00  0.00    +0.000 C 
BRANCH  24  25
ATOM     25  C   UNL     1       9.801 -12.989  -3.434  0.00  0.00    +0.000 C 
ATOM     26  H   UNL     1       9.685 -13.892  -2.828  0.00  0.00    +0.000 HD
ATOM     27  H   UNL     1       9.031 -12.980  -4.210  0.00  0.00    +0.000 HD
ATOM     28  H   UNL     1       9.695 -12.114  -2.788  0.00  0.00    +0.000 HD
ENDBRANCH  24  25
ENDBRANCH  20  24
ENDBRANCH  17  20
ENDBRANCH   1  17
TORSDOF 8
ENDMDL
