MODEL 1
REMARK VINA RESULT:    -4.056      0.000      0.000
REMARK INTER + INTRA:          -5.735
REMARK INTER:                  -5.607
REMARK INTRA:                  -0.128
REMARK UNBOUND:                -0.138
REMARK  Name = 20083
REMARK  8 active torsions:
REMARK  status: ('A' for Active; 'I' for Inactive)
REMARK    1  A    between atoms: O_1  and  C_6
REMARK    2  A    between atoms: C_2  and  C_3
REMARK    3  A    between atoms: C_2  and  C_4
REMARK    4  A    between atoms: C_3  and  C_5
REMARK    5  A    between atoms: C_4  and  C_6
REMARK    6  A    between atoms: C_5  and  C_7
REMARK    7  A    between atoms: C_6  and  C_8
REMARK    8  A    between atoms: C_7  and  C_9
REMARK                            x       y       z     vdW  Elec       q    Type
REMARK                         _______ _______ _______ _____ _____    ______ ____
ROOT
ATOM      1  C   UNL     1     -11.751 -15.963   7.638  0.00  0.00    +0.000 C 
ATOM      2  H   UNL     1     -12.110 -15.815   6.613  0.00  0.00    +0.000 HD
ATOM      3  H   UNL     1     -12.180 -16.905   8.000  0.00  0.00    +0.000 HD
ENDROOT
BRANCH   1   4
ATOM      4  C   UNL     1     -12.253 -14.826   8.530  0.00  0.00    +0.000 C 
ATOM      5  H   UNL     1     -12.262 -13.890   7.958  0.00  0.00    +0.000 HD
ATOM      6  H   UNL     1     -11.549 -14.683   9.359  0.00  0.00    +0.000 HD
BRANCH   4   7
ATOM      7  C   UNL     1     -13.651 -15.074   9.104  0.00  0.00    +0.000 C 
ATOM      8  H   UNL     1     -14.401 -14.851   8.334  0.00  0.00    +0.000 HD
ATOM      9  H   UNL     1     -13.752 -16.141   9.343  0.00  0.00    +0.000 HD
BRANCH   7  10
ATOM     10  C   UNL     1     -13.949 -14.252  10.358  0.00  0.00    +0.000 C 
ATOM     11  H   UNL     1     -14.575 -14.834  11.044  0.00  0.00    +0.000 HD
ATOM     12  H   UNL     1     -13.014 -14.026  10.884  0.00  0.00    +0.000 HD
BRANCH  10  13
ATOM     13  C   UNL     1     -14.663 -12.953  10.013  0.00  0.00    +0.000 C 
ATOM     14  H   UNL     1     -15.022 -12.966   8.979  0.00  0.00    +0.000 HD
ATOM     15  H   UNL     1     -15.526 -12.810  10.671  0.00  0.00    +0.000 HD
ATOM     16  H   UNL     1     -13.995 -12.095  10.136  0.00  0.00    +0.000 HD
ENDBRANCH  10  13
ENDBRANCH   7  10
ENDBRANCH   4   7
ENDBRANCH   1   4
BRANCH   1  17
ATOM     17  C   UNL     1     -10.219 -16.036   7.644  0.00  0.00    +0.000 C 
ATOM     18  H   UNL     1      -9.860 -16.328   6.651  0.00  0.00    +0.000 HD
ATOM     19  H   UNL     1      -9.826 -15.034   7.856  0.00  0.00    +0.000 HD
BRANCH  17  20
ATOM     20  C   UNL     1      -9.692 -17.019   8.695  0.00  0.00    +0.000 C 
ATOM     21  H   UNL     1     -10.276 -16.940   9.619  0.00  0.00    +0.000 HD
BRANCH  20  22
ATOM     22  C   UNL     1      -9.755 -18.454   8.190  0.00  0.00    +0.000 C 
ATOM     23  H   UNL     1      -9.054 -19.085   8.746  0.00  0.00    +0.000 HD
ATOM     24  H   UNL     1      -9.461 -18.512   7.136  0.00  0.00    +0.000 HD
ATOM     25  H   UNL     1     -10.762 -18.869   8.297  0.00  0.00    +0.000 HD
ENDBRANCH  20  22
BRANCH  20  26
ATOM     26  O   UNL     1      -8.337 -16.697   8.998  0.00  0.00    +0.000 OA
ATOM     27  H   UNL     1      -8.328 -16.214   9.841  0.00  0.00    +0.000 HD
ENDBRANCH  20  26
ENDBRANCH  17  20
ENDBRANCH   1  17
TORSDOF 8
ENDMDL
MODEL 2
REMARK VINA RESULT:    -4.047     16.220     18.009
REMARK INTER + INTRA:          -5.722
REMARK INTER:                  -5.225
REMARK INTRA:                  -0.497
REMARK UNBOUND:                -0.138
REMARK  Name = 20083
REMARK  8 active torsions:
REMARK  status: ('A' for Active; 'I' for Inactive)
REMARK    1  A    between atoms: O_1  and  C_6
REMARK    2  A    between atoms: C_2  and  C_3
REMARK    3  A    between atoms: C_2  and  C_4
REMARK    4  A    between atoms: C_3  and  C_5
REMARK    5  A    between atoms: C_4  and  C_6
REMARK    6  A    between atoms: C_5  and  C_7
REMARK    7  A    between atoms: C_6  and  C_8
REMARK    8  A    between atoms: C_7  and  C_9
REMARK                            x       y       z     vdW  Elec       q    Type
REMARK                         _______ _______ _______ _____ _____    ______ ____
ROOT
ATOM      1  C   UNL     1       5.300 -14.228   1.382  0.00  0.00    +0.000 C 
ATOM      2  H   UNL     1       5.999 -15.069   1.463  0.00  0.00    +0.000 HD
ATOM      3  H   UNL     1       5.741 -13.383   1.924  0.00  0.00    +0.000 HD
ENDROOT
BRANCH   1   4
ATOM      4  C   UNL     1       3.973 -14.593   2.051  0.00  0.00    +0.000 C 
ATOM      5  H   UNL     1       4.055 -15.589   2.504  0.00  0.00    +0.000 HD
ATOM      6  H   UNL     1       3.191 -14.659   1.284  0.00  0.00    +0.000 HD
BRANCH   4   7
ATOM      7  C   UNL     1       3.535 -13.591   3.122  0.00  0.00    +0.000 C 
ATOM      8  H   UNL     1       3.361 -14.125   4.065  0.00  0.00    +0.000 HD
ATOM      9  H   UNL     1       4.356 -12.887   3.306  0.00  0.00    +0.000 HD
BRANCH   7  10
ATOM     10  C   UNL     1       2.279 -12.805   2.743  0.00  0.00    +0.000 C 
ATOM     11  H   UNL     1       1.664 -13.398   2.055  0.00  0.00    +0.000 HD
ATOM     12  H   UNL     1       1.675 -12.618   3.639  0.00  0.00    +0.000 HD
BRANCH  10  13
ATOM     13  C   UNL     1       2.630 -11.481   2.083  0.00  0.00    +0.000 C 
ATOM     14  H   UNL     1       3.173 -10.829   2.775  0.00  0.00    +0.000 HD
ATOM     15  H   UNL     1       3.265 -11.652   1.208  0.00  0.00    +0.000 HD
ATOM     16  H   UNL     1       1.729 -10.957   1.751  0.00  0.00    +0.000 HD
ENDBRANCH  10  13
ENDBRANCH   7  10
ENDBRANCH   4   7
ENDBRANCH   1   4
BRANCH   1  17
ATOM     17  C   UNL     1       5.095 -13.867  -0.095  0.00  0.00    +0.000 C 
ATOM     18  H   UNL     1       5.659 -14.562  -0.726  0.00  0.00    +0.000 HD
ATOM     19  H   UNL     1       4.032 -13.989  -0.336  0.00  0.00    +0.000 HD
BRANCH  17  20
ATOM     20  C   UNL     1       5.521 -12.427  -0.401  0.00  0.00    +0.000 C 
ATOM     21  H   UNL     1       6.394 -12.420  -1.065  0.00  0.00    +0.000 HD
BRANCH  20  22
ATOM     22  C   UNL     1       4.392 -11.646  -1.059  0.00  0.00    +0.000 C 
ATOM     23  H   UNL     1       4.196 -12.033  -2.064  0.00  0.00    +0.000 HD
ATOM     24  H   UNL     1       4.661 -10.590  -1.176  0.00  0.00    +0.000 HD
ATOM     25  H   UNL     1       3.470 -11.710  -0.473  0.00  0.00    +0.000 HD
ENDBRANCH  20  22
BRANCH  20  26
ATOM     26  O   UNL     1       5.885 -11.778   0.814  0.00  0.00    +0.000 OA
ATOM     27  H   UNL     1       6.035 -12.464   1.484  0.00  0.00    +0.000 HD
ENDBRANCH  20  26
ENDBRANCH  17  20
ENDBRANCH   1  17
TORSDOF 8
ENDMDL
MODEL 3
REMARK VINA RESULT:    -4.036     25.143     27.164
REMARK INTER + INTRA:          -5.708
REMARK INTER:                  -5.614
REMARK INTRA:                  -0.094
REMARK UNBOUND:                -0.138
REMARK  Name = 20083
REMARK  8 active torsions:
REMARK  status: ('A' for Active; 'I' for Inactive)
REMARK    1  A    between atoms: O_1  and  C_6
REMARK    2  A    between atoms: C_2  and  C_3
REMARK    3  A    between atoms: C_2  and  C_4
REMARK    4  A    between atoms: C_3  and  C_5
REMARK    5  A    between atoms: C_4  and  C_6
REMARK    6  A    between atoms: C_5  and  C_7
REMARK    7  A    between atoms: C_6  and  C_8
REMARK    8  A    between atoms: C_7  and  C_9
REMARK                            x       y       z     vdW  Elec       q    Type
REMARK                         _______ _______ _______ _____ _____    ______ ____
ROOT
ATOM      1  C   UNL     1      11.644  -9.349  -2.506  0.00  0.00    +0.000 C 
ATOM      2  H   UNL     1      11.161  -8.472  -2.954  0.00  0.00    +0.000 HD
ATOM      3  H   UNL     1      12.419  -8.980  -1.825  0.00  0.00    +0.000 HD
ENDROOT
BRANCH   1   4
ATOM      4  C   UNL     1      12.316 -10.182  -3.599  0.00  0.00    +0.000 C 
ATOM      5  H   UNL     1      12.024  -9.796  -4.584  0.00  0.00    +0.000 HD
ATOM      6  H   UNL     1      11.945 -11.214  -3.543  0.00  0.00    +0.000 HD
BRANCH   4   7
ATOM      7  C   UNL     1      13.843 -10.198  -3.501  0.00  0.00    +0.000 C 
ATOM      8  H   UNL     1      14.144  -9.842  -2.508  0.00  0.00    +0.000 HD
ATOM      9  H   UNL     1      14.193 -11.235  -3.584  0.00  0.00    +0.000 HD
BRANCH   7  10
ATOM     10  C   UNL     1      14.531  -9.352  -4.574  0.00  0.00    +0.000 C 
ATOM     11  H   UNL     1      13.855  -8.556  -4.908  0.00  0.00    +0.000 HD
ATOM     12  H   UNL     1      15.419  -8.867  -4.151  0.00  0.00    +0.000 HD
BRANCH  10  13
ATOM     13  C   UNL     1      14.937 -10.197  -5.772  0.00  0.00    +0.000 C 
ATOM     14  H   UNL     1      14.880 -11.264  -5.536  0.00  0.00    +0.000 HD
ATOM     15  H   UNL     1      14.271  -9.999  -6.617  0.00  0.00    +0.000 HD
ATOM     16  H   UNL     1      15.960  -9.967  -6.085  0.00  0.00    +0.000 HD
ENDBRANCH  10  13
ENDBRANCH   7  10
ENDBRANCH   4   7
ENDBRANCH   1   4
BRANCH   1  17
ATOM     17  C   UNL     1      10.605 -10.176  -1.738  0.00  0.00    +0.000 C 
ATOM     18  H   UNL     1       9.884 -10.606  -2.441  0.00  0.00    +0.000 HD
ATOM     19  H   UNL     1      11.123 -11.008  -1.244  0.00  0.00    +0.000 HD
BRANCH  17  20
ATOM     20  C   UNL     1       9.869  -9.342  -0.684  0.00  0.00    +0.000 C 
ATOM     21  H   UNL     1       9.919  -8.276  -0.936  0.00  0.00    +0.000 HD
BRANCH  20  22
ATOM     22  C   UNL     1       8.408  -9.757  -0.575  0.00  0.00    +0.000 C 
ATOM     23  H   UNL     1       7.988  -9.425   0.380  0.00  0.00    +0.000 HD
ATOM     24  H   UNL     1       8.307 -10.848  -0.599  0.00  0.00    +0.000 HD
ATOM     25  H   UNL     1       7.812  -9.331  -1.387  0.00  0.00    +0.000 HD
ENDBRANCH  20  22
BRANCH  20  26
ATOM     26  O   UNL     1      10.497  -9.528   0.581  0.00  0.00    +0.000 OA
ATOM     27  H   UNL     1       9.842  -9.917   1.184  0.00  0.00    +0.000 HD
ENDBRANCH  20  26
ENDBRANCH  17  20
ENDBRANCH   1  17
TORSDOF 8
ENDMDL
MODEL 4
REMARK VINA RESULT:    -4.019     25.260     26.904
REMARK INTER + INTRA:          -5.683
REMARK INTER:                  -5.491
REMARK INTRA:                  -0.192
REMARK UNBOUND:                -0.138
REMARK  Name = 20083
REMARK  8 active torsions:
REMARK  status: ('A' for Active; 'I' for Inactive)
REMARK    1  A    between atoms: O_1  and  C_6
REMARK    2  A    between atoms: C_2  and  C_3
REMARK    3  A    between atoms: C_2  and  C_4
REMARK    4  A    between atoms: C_3  and  C_5
REMARK    5  A    between atoms: C_4  and  C_6
REMARK    6  A    between atoms: C_5  and  C_7
REMARK    7  A    between atoms: C_6  and  C_8
REMARK    8  A    between atoms: C_7  and  C_9
REMARK                            x       y       z     vdW  Elec       q    Type
REMARK                         _______ _______ _______ _____ _____    ______ ____
ROOT
ATOM      1  C   UNL     1      11.668 -10.776  -3.147  0.00  0.00    +0.000 C 
ATOM      2  H   UNL     1      11.153 -10.626  -4.104  0.00  0.00    +0.000 HD
ATOM      3  H   UNL     1      11.929 -11.839  -3.082  0.00  0.00    +0.000 HD
ENDROOT
BRANCH   1   4
ATOM      4  C   UNL     1      10.722 -10.437  -1.994  0.00  0.00    +0.000 C 
ATOM      5  H   UNL     1      10.918 -11.112  -1.151  0.00  0.00    +0.000 HD
ATOM      6  H   UNL     1       9.688 -10.621  -2.312  0.00  0.00    +0.000 HD
BRANCH   4   7
ATOM      7  C   UNL     1      10.843  -8.989  -1.512  0.00  0.00    +0.000 C 
ATOM      8  H   UNL     1      11.700  -8.906  -0.832  0.00  0.00    +0.000 HD
ATOM      9  H   UNL     1      11.061  -8.346  -2.375  0.00  0.00    +0.000 HD
BRANCH   7  10
ATOM     10  C   UNL     1       9.586  -8.474  -0.810  0.00  0.00    +0.000 C 
ATOM     11  H   UNL     1       9.845  -8.101   0.188  0.00  0.00    +0.000 HD
ATOM     12  H   UNL     1       9.166  -7.632  -1.373  0.00  0.00    +0.000 HD
BRANCH  10  13
ATOM     13  C   UNL     1       8.537  -9.568  -0.676  0.00  0.00    +0.000 C 
ATOM     14  H   UNL     1       8.252  -9.712   0.371  0.00  0.00    +0.000 HD
ATOM     15  H   UNL     1       7.638  -9.300  -1.240  0.00  0.00    +0.000 HD
ATOM     16  H   UNL     1       8.912 -10.519  -1.066  0.00  0.00    +0.000 HD
ENDBRANCH  10  13
ENDBRANCH   7  10
ENDBRANCH   4   7
ENDBRANCH   1   4
BRANCH   1  17
ATOM     17  C   UNL     1      12.933  -9.911  -3.099  0.00  0.00    +0.000 C 
ATOM     18  H   UNL     1      12.667  -8.859  -3.248  0.00  0.00    +0.000 HD
ATOM     19  H   UNL     1      13.376 -10.002  -2.099  0.00  0.00    +0.000 HD
BRANCH  17  20
ATOM     20  C   UNL     1      13.965 -10.338  -4.149  0.00  0.00    +0.000 C 
ATOM     21  H   UNL     1      13.490 -10.952  -4.923  0.00  0.00    +0.000 HD
BRANCH  20  22
ATOM     22  C   UNL     1      14.616  -9.129  -4.805  0.00  0.00    +0.000 C 
ATOM     23  H   UNL     1      15.632  -9.373  -5.132  0.00  0.00    +0.000 HD
ATOM     24  H   UNL     1      14.706  -8.298  -4.097  0.00  0.00    +0.000 HD
ATOM     25  H   UNL     1      14.042  -8.789  -5.673  0.00  0.00    +0.000 HD
ENDBRANCH  20  22
BRANCH  20  26
ATOM     26  O   UNL     1      14.975 -11.121  -3.520  0.00  0.00    +0.000 OA
ATOM     27  H   UNL     1      14.535 -11.788  -2.968  0.00  0.00    +0.000 HD
ENDBRANCH  20  26
ENDBRANCH  17  20
ENDBRANCH   1  17
TORSDOF 8
ENDMDL
MODEL 5
REMARK VINA RESULT:    -3.867     22.122     24.110
REMARK INTER + INTRA:          -5.474
REMARK INTER:                  -5.304
REMARK INTRA:                  -0.170
REMARK UNBOUND:                -0.138
REMARK  Name = 20083
REMARK  8 active torsions:
REMARK  status: ('A' for Active; 'I' for Inactive)
REMARK    1  A    between atoms: O_1  and  C_6
REMARK    2  A    between atoms: C_2  and  C_3
REMARK    3  A    between atoms: C_2  and  C_4
REMARK    4  A    between atoms: C_3  and  C_5
REMARK    5  A    between atoms: C_4  and  C_6
REMARK    6  A    between atoms: C_5  and  C_7
REMARK    7  A    between atoms: C_6  and  C_8
REMARK    8  A    between atoms: C_7  and  C_9
REMARK                            x       y       z     vdW  Elec       q    Type
REMARK                         _______ _______ _______ _____ _____    ______ ____
ROOT
ATOM      1  C   UNL     1       9.337 -10.667  -0.285  0.00  0.00    +0.000 C 
ATOM      2  H   UNL     1       9.556  -9.778   0.319  0.00  0.00    +0.000 HD
ATOM      3  H   UNL     1       9.677 -11.539   0.285  0.00  0.00    +0.000 HD
ENDROOT
BRANCH   1   4
ATOM      4  C   UNL     1      10.125 -10.607  -1.595  0.00  0.00    +0.000 C 
ATOM      5  H   UNL     1       9.427 -10.627  -2.442  0.00  0.00    +0.000 HD
ATOM      6  H   UNL     1      10.750 -11.505  -1.680  0.00  0.00    +0.000 HD
BRANCH   4   7
ATOM      7  C   UNL     1      11.018  -9.369  -1.713  0.00  0.00    +0.000 C 
ATOM      8  H   UNL     1      10.397  -8.468  -1.630  0.00  0.00    +0.000 HD
ATOM      9  H   UNL     1      11.713  -9.351  -0.864  0.00  0.00    +0.000 HD
BRANCH   7  10
ATOM     10  C   UNL     1      11.817  -9.317  -3.015  0.00  0.00    +0.000 C 
ATOM     11  H   UNL     1      11.133  -9.246  -3.869  0.00  0.00    +0.000 HD
ATOM     12  H   UNL     1      12.446  -8.418  -3.029  0.00  0.00    +0.000 HD
BRANCH  10  13
ATOM     13  C   UNL     1      12.693 -10.550  -3.179  0.00  0.00    +0.000 C 
ATOM     14  H   UNL     1      12.510 -11.036  -4.143  0.00  0.00    +0.000 HD
ATOM     15  H   UNL     1      13.750 -10.272  -3.133  0.00  0.00    +0.000 HD
ATOM     16  H   UNL     1      12.498 -11.277  -2.384  0.00  0.00    +0.000 HD
ENDBRANCH  10  13
ENDBRANCH   7  10
ENDBRANCH   4   7
ENDBRANCH   1   4
BRANCH   1  17
ATOM     17  C   UNL     1       7.829 -10.755  -0.549  0.00  0.00    +0.000 C 
ATOM     18  H   UNL     1       7.335  -9.852  -0.172  0.00  0.00    +0.000 HD
ATOM     19  H   UNL     1       7.669 -10.790  -1.634  0.00  0.00    +0.000 HD
BRANCH  17  20
ATOM     20  C   UNL     1       7.201 -11.996   0.095  0.00  0.00    +0.000 C 
ATOM     21  H   UNL     1       6.573 -12.526  -0.631  0.00  0.00    +0.000 HD
BRANCH  20  22
ATOM     22  C   UNL     1       8.270 -12.948   0.614  0.00  0.00    +0.000 C 
ATOM     23  H   UNL     1       8.361 -13.815  -0.048  0.00  0.00    +0.000 HD
ATOM     24  H   UNL     1       8.003 -13.335   1.603  0.00  0.00    +0.000 HD
ATOM     25  H   UNL     1       9.244 -12.454   0.680  0.00  0.00    +0.000 HD
ENDBRANCH  20  22
BRANCH  20  26
ATOM     26  O   UNL     1       6.376 -11.591   1.183  0.00  0.00    +0.000 OA
ATOM     27  H   UNL     1       6.777 -10.803   1.584  0.00  0.00    +0.000 HD
ENDBRANCH  20  26
ENDBRANCH  17  20
ENDBRANCH   1  17
TORSDOF 8
ENDMDL
MODEL 6
REMARK VINA RESULT:    -3.848     34.911     35.660
REMARK INTER + INTRA:          -5.448
REMARK INTER:                  -5.298
REMARK INTRA:                  -0.151
REMARK UNBOUND:                -0.138
REMARK  Name = 20083
REMARK  8 active torsions:
REMARK  status: ('A' for Active; 'I' for Inactive)
REMARK    1  A    between atoms: O_1  and  C_6
REMARK    2  A    between atoms: C_2  and  C_3
REMARK    3  A    between atoms: C_2  and  C_4
REMARK    4  A    between atoms: C_3  and  C_5
REMARK    5  A    between atoms: C_4  and  C_6
REMARK    6  A    between atoms: C_5  and  C_7
REMARK    7  A    between atoms: C_6  and  C_8
REMARK    8  A    between atoms: C_7  and  C_9
REMARK                            x       y       z     vdW  Elec       q    Type
REMARK                         _______ _______ _______ _____ _____    ______ ____
ROOT
ATOM      1  C   UNL     1       8.115  12.841  -1.169  0.00  0.00    +0.000 C 
ATOM      2  H   UNL     1       8.626  12.525  -0.251  0.00  0.00    +0.000 HD
ATOM      3  H   UNL     1       8.360  13.897  -1.332  0.00  0.00    +0.000 HD
ENDROOT
BRANCH   1   4
ATOM      4  C   UNL     1       6.601  12.717  -0.985  0.00  0.00    +0.000 C 
ATOM      5  H   UNL     1       6.169  12.200  -1.852  0.00  0.00    +0.000 HD
ATOM      6  H   UNL     1       6.159  13.722  -0.965  0.00  0.00    +0.000 HD
BRANCH   4   7
ATOM      7  C   UNL     1       6.201  11.972   0.291  0.00  0.00    +0.000 C 
ATOM      8  H   UNL     1       5.138  11.706   0.234  0.00  0.00    +0.000 HD
ATOM      9  H   UNL     1       6.760  11.029   0.340  0.00  0.00    +0.000 HD
BRANCH   7  10
ATOM     10  C   UNL     1       6.457  12.773   1.569  0.00  0.00    +0.000 C 
ATOM     11  H   UNL     1       7.531  12.780   1.793  0.00  0.00    +0.000 HD
ATOM     12  H   UNL     1       6.149  13.814   1.421  0.00  0.00    +0.000 HD
BRANCH  10  13
ATOM     13  C   UNL     1       5.705  12.184   2.752  0.00  0.00    +0.000 C 
ATOM     14  H   UNL     1       6.083  12.588   3.697  0.00  0.00    +0.000 HD
ATOM     15  H   UNL     1       4.640  12.426   2.681  0.00  0.00    +0.000 HD
ATOM     16  H   UNL     1       5.805  11.095   2.778  0.00  0.00    +0.000 HD
ENDBRANCH  10  13
ENDBRANCH   7  10
ENDBRANCH   4   7
ENDBRANCH   1   4
BRANCH   1  17
ATOM     17  C   UNL     1       8.601  11.991  -2.350  0.00  0.00    +0.000 C 
ATOM     18  H   UNL     1       9.569  11.539  -2.106  0.00  0.00    +0.000 HD
ATOM     19  H   UNL     1       7.885  11.174  -2.506  0.00  0.00    +0.000 HD
BRANCH  17  20
ATOM     20  C   UNL     1       8.723  12.810  -3.639  0.00  0.00    +0.000 C 
ATOM     21  H   UNL     1       8.802  13.879  -3.407  0.00  0.00    +0.000 HD
BRANCH  20  22
ATOM     22  C   UNL     1       9.941  12.388  -4.448  0.00  0.00    +0.000 C 
ATOM     23  H   UNL     1       9.987  12.947  -5.388  0.00  0.00    +0.000 HD
ATOM     24  H   UNL     1       9.885  11.327  -4.718  0.00  0.00    +0.000 HD
ATOM     25  H   UNL     1      10.867  12.560  -3.893  0.00  0.00    +0.000 HD
ENDBRANCH  20  22
BRANCH  20  26
ATOM     26  O   UNL     1       7.554  12.615  -4.429  0.00  0.00    +0.000 OA
ATOM     27  H   UNL     1       6.867  13.217  -4.099  0.00  0.00    +0.000 HD
ENDBRANCH  20  26
ENDBRANCH  17  20
ENDBRANCH   1  17
TORSDOF 8
ENDMDL
MODEL 7
REMARK VINA RESULT:    -3.804     19.807     21.030
REMARK INTER + INTRA:          -5.387
REMARK INTER:                  -4.843
REMARK INTRA:                  -0.545
REMARK UNBOUND:                -0.138
REMARK  Name = 20083
REMARK  8 active torsions:
REMARK  status: ('A' for Active; 'I' for Inactive)
REMARK    1  A    between atoms: O_1  and  C_6
REMARK    2  A    between atoms: C_2  and  C_3
REMARK    3  A    between atoms: C_2  and  C_4
REMARK    4  A    between atoms: C_3  and  C_5
REMARK    5  A    between atoms: C_4  and  C_6
REMARK    6  A    between atoms: C_5  and  C_7
REMARK    7  A    between atoms: C_6  and  C_8
REMARK    8  A    between atoms: C_7  and  C_9
REMARK                            x       y       z     vdW  Elec       q    Type
REMARK                         _______ _______ _______ _____ _____    ______ ____
ROOT
ATOM      1  C   UNL     1      -2.848  -8.054  -9.327  0.00  0.00    +0.000 C 
ATOM      2  H   UNL     1      -2.859  -8.230  -8.244  0.00  0.00    +0.000 HD
ATOM      3  H   UNL     1      -1.799  -7.994  -9.637  0.00  0.00    +0.000 HD
ENDROOT
BRANCH   1   4
ATOM      4  C   UNL     1      -3.523  -6.716  -9.637  0.00  0.00    +0.000 C 
ATOM      5  H   UNL     1      -2.781  -6.022 -10.054  0.00  0.00    +0.000 HD
ATOM      6  H   UNL     1      -3.882  -6.269  -8.701  0.00  0.00    +0.000 HD
BRANCH   4   7
ATOM      7  C   UNL     1      -4.697  -6.837 -10.612  0.00  0.00    +0.000 C 
ATOM      8  H   UNL     1      -4.507  -6.199 -11.485  0.00  0.00    +0.000 HD
ATOM      9  H   UNL     1      -4.746  -7.870 -10.980  0.00  0.00    +0.000 HD
BRANCH   7  10
ATOM     10  C   UNL     1      -6.044  -6.462  -9.992  0.00  0.00    +0.000 C 
ATOM     11  H   UNL     1      -6.457  -5.586 -10.505  0.00  0.00    +0.000 HD
ATOM     12  H   UNL     1      -6.756  -7.285 -10.129  0.00  0.00    +0.000 HD
BRANCH  10  13
ATOM     13  C   UNL     1      -5.905  -6.153  -8.509  0.00  0.00    +0.000 C 
ATOM     14  H   UNL     1      -6.750  -6.560  -7.944  0.00  0.00    +0.000 HD
ATOM     15  H   UNL     1      -4.986  -6.597  -8.115  0.00  0.00    +0.000 HD
ATOM     16  H   UNL     1      -5.863  -5.073  -8.337  0.00  0.00    +0.000 HD
ENDBRANCH  10  13
ENDBRANCH   7  10
ENDBRANCH   4   7
ENDBRANCH   1   4
BRANCH   1  17
ATOM     17  C   UNL     1      -3.554  -9.210 -10.046  0.00  0.00    +0.000 C 
ATOM     18  H   UNL     1      -4.273  -8.810 -10.770  0.00  0.00    +0.000 HD
ATOM     19  H   UNL     1      -2.802  -9.779 -10.607  0.00  0.00    +0.000 HD
BRANCH  17  20
ATOM     20  C   UNL     1      -4.271 -10.147  -9.068  0.00  0.00    +0.000 C 
ATOM     21  H   UNL     1      -4.021 -11.192  -9.286  0.00  0.00    +0.000 HD
BRANCH  20  22
ATOM     22  C   UNL     1      -3.889  -9.837  -7.627  0.00  0.00    +0.000 C 
ATOM     23  H   UNL     1      -3.748 -10.764  -7.062  0.00  0.00    +0.000 HD
ATOM     24  H   UNL     1      -4.685  -9.279  -7.121  0.00  0.00    +0.000 HD
ATOM     25  H   UNL     1      -2.965  -9.253  -7.577  0.00  0.00    +0.000 HD
ENDBRANCH  20  22
BRANCH  20  26
ATOM     26  O   UNL     1      -5.679  -9.988  -9.215  0.00  0.00    +0.000 OA
ATOM     27  H   UNL     1      -5.913 -10.235 -10.125  0.00  0.00    +0.000 HD
ENDBRANCH  20  26
ENDBRANCH  17  20
ENDBRANCH   1  17
TORSDOF 8
ENDMDL
MODEL 8
REMARK VINA RESULT:    -3.703      3.652      5.949
REMARK INTER + INTRA:          -5.248
REMARK INTER:                  -4.969
REMARK INTRA:                  -0.279
REMARK UNBOUND:                -0.138
REMARK  Name = 20083
REMARK  8 active torsions:
REMARK  status: ('A' for Active; 'I' for Inactive)
REMARK    1  A    between atoms: O_1  and  C_6
REMARK    2  A    between atoms: C_2  and  C_3
REMARK    3  A    between atoms: C_2  and  C_4
REMARK    4  A    between atoms: C_3  and  C_5
REMARK    5  A    between atoms: C_4  and  C_6
REMARK    6  A    between atoms: C_5  and  C_7
REMARK    7  A    between atoms: C_6  and  C_8
REMARK    8  A    between atoms: C_7  and  C_9
REMARK                            x       y       z     vdW  Elec       q    Type
REMARK                         _______ _______ _______ _____ _____    ______ ____
ROOT
ATOM      1  C   UNL     1      -8.414 -14.176   6.727  0.00  0.00    +0.000 C 
ATOM      2  H   UNL     1      -8.472 -13.865   5.677  0.00  0.00    +0.000 HD
ATOM      3  H   UNL     1      -9.204 -13.644   7.268  0.00  0.00    +0.000 HD
ENDROOT
BRANCH   1   4
ATOM      4  C   UNL     1      -7.062 -13.763   7.313  0.00  0.00    +0.000 C 
ATOM      5  H   UNL     1      -6.690 -14.561   7.969  0.00  0.00    +0.000 HD
ATOM      6  H   UNL     1      -7.201 -12.875   7.943  0.00  0.00    +0.000 HD
BRANCH   4   7
ATOM      7  C   UNL     1      -6.005 -13.457   6.249  0.00  0.00    +0.000 C 
ATOM      8  H   UNL     1      -5.347 -12.658   6.615  0.00  0.00    +0.000 HD
ATOM      9  H   UNL     1      -5.375 -14.345   6.110  0.00  0.00    +0.000 HD
BRANCH   7  10
ATOM     10  C   UNL     1      -6.598 -13.049   4.900  0.00  0.00    +0.000 C 
ATOM     11  H   UNL     1      -7.693 -13.073   4.954  0.00  0.00    +0.000 HD
ATOM     12  H   UNL     1      -6.307 -12.019   4.664  0.00  0.00    +0.000 HD
BRANCH  10  13
ATOM     13  C   UNL     1      -6.134 -13.976   3.787  0.00  0.00    +0.000 C 
ATOM     14  H   UNL     1      -5.041 -14.018   3.742  0.00  0.00    +0.000 HD
ATOM     15  H   UNL     1      -6.507 -14.990   3.959  0.00  0.00    +0.000 HD
ATOM     16  H   UNL     1      -6.506 -13.637   2.815  0.00  0.00    +0.000 HD
ENDBRANCH  10  13
ENDBRANCH   7  10
ENDBRANCH   4   7
ENDBRANCH   1   4
BRANCH   1  17
ATOM     17  C   UNL     1      -8.623 -15.692   6.830  0.00  0.00    +0.000 C 
ATOM     18  H   UNL     1      -9.235 -16.038   5.990  0.00  0.00    +0.000 HD
ATOM     19  H   UNL     1      -7.644 -16.182   6.749  0.00  0.00    +0.000 HD
BRANCH  17  20
ATOM     20  C   UNL     1      -9.283 -16.095   8.152  0.00  0.00    +0.000 C 
ATOM     21  H   UNL     1      -9.731 -15.221   8.638  0.00  0.00    +0.000 HD
BRANCH  20  22
ATOM     22  C   UNL     1     -10.361 -17.147   7.932  0.00  0.00    +0.000 C 
ATOM     23  H   UNL     1     -10.766 -17.071   6.917  0.00  0.00    +0.000 HD
ATOM     24  H   UNL     1     -11.203 -16.995   8.617  0.00  0.00    +0.000 HD
ATOM     25  H   UNL     1      -9.968 -18.157   8.078  0.00  0.00    +0.000 HD
ENDBRANCH  20  22
BRANCH  20  26
ATOM     26  O   UNL     1      -8.292 -16.627   9.027  0.00  0.00    +0.000 OA
ATOM     27  H   UNL     1      -7.439 -16.595   8.564  0.00  0.00    +0.000 HD
ENDBRANCH  20  26
ENDBRANCH  17  20
ENDBRANCH   1  17
TORSDOF 8
ENDMDL
MODEL 9
REMARK VINA RESULT:    -3.686      6.407      8.061
REMARK INTER + INTRA:          -5.224
REMARK INTER:                  -4.937
REMARK INTRA:                  -0.287
REMARK UNBOUND:                -0.138
REMARK  Name = 20083
REMARK  8 active torsions:
REMARK  status: ('A' for Active; 'I' for Inactive)
REMARK    1  A    between atoms: O_1  and  C_6
REMARK    2  A    between atoms: C_2  and  C_3
REMARK    3  A    between atoms: C_2  and  C_4
REMARK    4  A    between atoms: C_3  and  C_5
REMARK    5  A    between atoms: C_4  and  C_6
REMARK    6  A    between atoms: C_5  and  C_7
REMARK    7  A    between atoms: C_6  and  C_8
REMARK    8  A    between atoms: C_7  and  C_9
REMARK                            x       y       z     vdW  Elec       q    Type
REMARK                         _______ _______ _______ _____ _____    ______ ____
ROOT
ATOM      1  C   UNL     1      -6.049 -14.208   3.735  0.00  0.00    +0.000 C 
ATOM      2  H   UNL     1      -6.978 -14.525   3.246  0.00  0.00    +0.000 HD
ATOM      3  H   UNL     1      -5.219 -14.681   3.197  0.00  0.00    +0.000 HD
ENDROOT
BRANCH   1   4
ATOM      4  C   UNL     1      -6.033 -14.703   5.182  0.00  0.00    +0.000 C 
ATOM      5  H   UNL     1      -5.208 -15.414   5.316  0.00  0.00    +0.000 HD
ATOM      6  H   UNL     1      -6.961 -15.254   5.383  0.00  0.00    +0.000 HD
BRANCH   4   7
ATOM      7  C   UNL     1      -5.893 -13.577   6.210  0.00  0.00    +0.000 C 
ATOM      8  H   UNL     1      -4.922 -13.667   6.713  0.00  0.00    +0.000 HD
ATOM      9  H   UNL     1      -5.886 -12.614   5.682  0.00  0.00    +0.000 HD
BRANCH   7  10
ATOM     10  C   UNL     1      -7.009 -13.565   7.256  0.00  0.00    +0.000 C 
ATOM     11  H   UNL     1      -6.627 -13.949   8.210  0.00  0.00    +0.000 HD
ATOM     12  H   UNL     1      -7.342 -12.535   7.430  0.00  0.00    +0.000 HD
BRANCH  10  13
ATOM     13  C   UNL     1      -8.192 -14.413   6.815  0.00  0.00    +0.000 C 
ATOM     14  H   UNL     1      -7.963 -15.480   6.900  0.00  0.00    +0.000 HD
ATOM     15  H   UNL     1      -9.064 -14.201   7.442  0.00  0.00    +0.000 HD
ATOM     16  H   UNL     1      -8.461 -14.199   5.776  0.00  0.00    +0.000 HD
ENDBRANCH  10  13
ENDBRANCH   7  10
ENDBRANCH   4   7
ENDBRANCH   1   4
BRANCH   1  17
ATOM     17  C   UNL     1      -5.926 -12.680   3.670  0.00  0.00    +0.000 C 
ATOM     18  H   UNL     1      -6.635 -12.223   4.369  0.00  0.00    +0.000 HD
ATOM     19  H   UNL     1      -4.915 -12.401   3.994  0.00  0.00    +0.000 HD
BRANCH  17  20
ATOM     20  C   UNL     1      -6.171 -12.141   2.257  0.00  0.00    +0.000 C 
ATOM     21  H   UNL     1      -6.476 -11.088   2.297  0.00  0.00    +0.000 HD
BRANCH  20  22
ATOM     22  C   UNL     1      -4.921 -12.261   1.396  0.00  0.00    +0.000 C 
ATOM     23  H   UNL     1      -5.118 -12.897   0.527  0.00  0.00    +0.000 HD
ATOM     24  H   UNL     1      -4.105 -12.736   1.953  0.00  0.00    +0.000 HD
ATOM     25  H   UNL     1      -4.583 -11.282   1.045  0.00  0.00    +0.000 HD
ENDBRANCH  20  22
BRANCH  20  26
ATOM     26  O   UNL     1      -7.223 -12.883   1.649  0.00  0.00    +0.000 OA
ATOM     27  H   UNL     1      -6.822 -13.521   1.036  0.00  0.00    +0.000 HD
ENDBRANCH  20  26
ENDBRANCH  17  20
ENDBRANCH   1  17
TORSDOF 8
ENDMDL
MODEL 10
REMARK VINA RESULT:    -3.633     30.404     32.859
REMARK INTER + INTRA:          -5.151
REMARK INTER:                  -5.014
REMARK INTRA:                  -0.138
REMARK UNBOUND:                -0.138
REMARK  Name = 20083
REMARK  8 active torsions:
REMARK  status: ('A' for Active; 'I' for Inactive)
REMARK    1  A    between atoms: O_1  and  C_6
REMARK    2  A    between atoms: C_2  and  C_3
REMARK    3  A    between atoms: C_2  and  C_4
REMARK    4  A    between atoms: C_3  and  C_5
REMARK    5  A    between atoms: C_4  and  C_6
REMARK    6  A    between atoms: C_5  and  C_7
REMARK    7  A    between atoms: C_6  and  C_8
REMARK    8  A    between atoms: C_7  and  C_9
REMARK                            x       y       z     vdW  Elec       q    Type
REMARK                         _______ _______ _______ _____ _____    ______ ____
ROOT
ATOM      1  C   UNL     1     -26.641  12.679   4.571  0.00  0.00    +0.000 C 
ATOM      2  H   UNL     1     -26.070  13.597   4.392  0.00  0.00    +0.000 HD
ATOM      3  H   UNL     1     -26.862  12.237   3.593  0.00  0.00    +0.000 HD
ENDROOT
BRANCH   1   4
ATOM      4  C   UNL     1     -27.965  13.022   5.258  0.00  0.00    +0.000 C 
ATOM      5  H   UNL     1     -27.777  13.262   6.312  0.00  0.00    +0.000 HD
ATOM      6  H   UNL     1     -28.615  12.137   5.246  0.00  0.00    +0.000 HD
BRANCH   4   7
ATOM      7  C   UNL     1     -28.706  14.191   4.604  0.00  0.00    +0.000 C 
ATOM      8  H   UNL     1     -28.050  14.663   3.862  0.00  0.00    +0.000 HD
ATOM      9  H   UNL     1     -29.572  13.799   4.056  0.00  0.00    +0.000 HD
BRANCH   7  10
ATOM     10  C   UNL     1     -29.183  15.245   5.604  0.00  0.00    +0.000 C 
ATOM     11  H   UNL     1     -29.652  14.753   6.466  0.00  0.00    +0.000 HD
ATOM     12  H   UNL     1     -28.325  15.813   5.982  0.00  0.00    +0.000 HD
BRANCH  10  13
ATOM     13  C   UNL     1     -30.184  16.199   4.970  0.00  0.00    +0.000 C 
ATOM     14  H   UNL     1     -31.131  15.692   4.761  0.00  0.00    +0.000 HD
ATOM     15  H   UNL     1     -30.388  17.036   5.645  0.00  0.00    +0.000 HD
ATOM     16  H   UNL     1     -29.796  16.606   4.031  0.00  0.00    +0.000 HD
ENDBRANCH  10  13
ENDBRANCH   7  10
ENDBRANCH   4   7
ENDBRANCH   1   4
BRANCH   1  17
ATOM     17  C   UNL     1     -25.810  11.710   5.421  0.00  0.00    +0.000 C 
ATOM     18  H   UNL     1     -25.775  12.065   6.457  0.00  0.00    +0.000 HD
ATOM     19  H   UNL     1     -26.313  10.734   5.423  0.00  0.00    +0.000 HD
BRANCH  17  20
ATOM     20  C   UNL     1     -24.386  11.544   4.881  0.00  0.00    +0.000 C 
ATOM     21  H   UNL     1     -24.298  10.609   4.316  0.00  0.00    +0.000 HD
BRANCH  20  22
ATOM     22  C   UNL     1     -24.000  12.707   3.978  0.00  0.00    +0.000 C 
ATOM     23  H   UNL     1     -24.530  13.616   4.280  0.00  0.00    +0.000 HD
ATOM     24  H   UNL     1     -24.286  12.508   2.939  0.00  0.00    +0.000 HD
ATOM     25  H   UNL     1     -22.924  12.900   4.016  0.00  0.00    +0.000 HD
ENDBRANCH  20  22
BRANCH  20  26
ATOM     26  O   UNL     1     -23.475  11.488   5.975  0.00  0.00    +0.000 OA
ATOM     27  H   UNL     1     -23.247  12.400   6.220  0.00  0.00    +0.000 HD
ENDBRANCH  20  26
ENDBRANCH  17  20
ENDBRANCH   1  17
TORSDOF 8
ENDMDL
