MODEL 1
REMARK VINA RESULT:    -3.630      0.000      0.000
REMARK INTER + INTRA:          -4.431
REMARK INTER:                  -4.405
REMARK INTRA:                  -0.025
REMARK UNBOUND:                -0.058
REMARK  Name = 22386
REMARK  5 active torsions:
REMARK  status: ('A' for Active; 'I' for Inactive)
REMARK    1  A    between atoms: O_1  and  C_3
REMARK    2  A    between atoms: C_2  and  C_3
REMARK    3  A    between atoms: C_2  and  C_4
REMARK    4  A    between atoms: C_3  and  C_5
REMARK    5  A    between atoms: C_4  and  C_6
REMARK                            x       y       z     vdW  Elec       q    Type
REMARK                         _______ _______ _______ _____ _____    ______ ____
ROOT
ATOM      1  C   UNL     1       0.901  -4.011  15.570  0.00  0.00    +0.000 C 
ATOM      2  H   UNL     1      -0.081  -3.548  15.415  0.00  0.00    +0.000 HD
ATOM      3  H   UNL     1       1.092  -4.020  16.651  0.00  0.00    +0.000 HD
ENDROOT
BRANCH   1   4
ATOM      4  C   UNL     1       0.850  -5.448  15.048  0.00  0.00    +0.000 C 
ATOM      5  H   UNL     1       1.842  -5.906  15.123  0.00  0.00    +0.000 HD
ATOM      6  H   UNL     1       0.568  -5.457  13.988  0.00  0.00    +0.000 HD
BRANCH   4   7
ATOM      7  C   UNL     1      -0.147  -6.290  15.830  0.00  0.00    +0.000 C 
ATOM      8  H   UNL     1      -1.148  -5.850  15.765  0.00  0.00    +0.000 HD
ATOM      9  H   UNL     1       0.131  -6.346  16.886  0.00  0.00    +0.000 HD
ATOM     10  H   UNL     1      -0.197  -7.309  15.432  0.00  0.00    +0.000 HD
ENDBRANCH   4   7
ENDBRANCH   1   4
BRANCH   1  11
ATOM     11  C   UNL     1       1.979  -3.179  14.868  0.00  0.00    +0.000 C 
ATOM     12  H   UNL     1       2.335  -3.708  13.976  0.00  0.00    +0.000 HD
BRANCH  11  13
ATOM     13  C   UNL     1       3.160  -2.902  15.788  0.00  0.00    +0.000 C 
ATOM     14  H   UNL     1       3.221  -1.837  16.040  0.00  0.00    +0.000 HD
ATOM     15  H   UNL     1       3.087  -3.479  16.715  0.00  0.00    +0.000 HD
ATOM     16  H   UNL     1       4.101  -3.160  15.289  0.00  0.00    +0.000 HD
ENDBRANCH  11  13
BRANCH  11  17
ATOM     17  O   UNL     1       1.433  -1.935  14.437  0.00  0.00    +0.000 OA
ATOM     18  H   UNL     1       0.502  -2.084  14.198  0.00  0.00    +0.000 HD
ENDBRANCH  11  17
ENDBRANCH   1  11
TORSDOF 5
ENDMDL
MODEL 2
REMARK VINA RESULT:    -3.517     19.459     19.947
REMARK INTER + INTRA:          -4.294
REMARK INTER:                  -4.251
REMARK INTRA:                  -0.044
REMARK UNBOUND:                -0.058
REMARK  Name = 22386
REMARK  5 active torsions:
REMARK  status: ('A' for Active; 'I' for Inactive)
REMARK    1  A    between atoms: O_1  and  C_3
REMARK    2  A    between atoms: C_2  and  C_3
REMARK    3  A    between atoms: C_2  and  C_4
REMARK    4  A    between atoms: C_3  and  C_5
REMARK    5  A    between atoms: C_4  and  C_6
REMARK                            x       y       z     vdW  Elec       q    Type
REMARK                         _______ _______ _______ _____ _____    ______ ____
ROOT
ATOM      1  C   UNL     1      10.442 -10.438  -1.703  0.00  0.00    +0.000 C 
ATOM      2  H   UNL     1       9.704 -10.565  -2.504  0.00  0.00    +0.000 HD
ATOM      3  H   UNL     1      11.018 -11.370  -1.636  0.00  0.00    +0.000 HD
ENDROOT
BRANCH   1   4
ATOM      4  C   UNL     1      11.375  -9.285  -2.077  0.00  0.00    +0.000 C 
ATOM      5  H   UNL     1      11.758  -8.807  -1.168  0.00  0.00    +0.000 HD
ATOM      6  H   UNL     1      10.826  -8.520  -2.640  0.00  0.00    +0.000 HD
BRANCH   4   7
ATOM      7  C   UNL     1      12.547  -9.768  -2.917  0.00  0.00    +0.000 C 
ATOM      8  H   UNL     1      12.690  -9.112  -3.781  0.00  0.00    +0.000 HD
ATOM      9  H   UNL     1      12.373 -10.783  -3.287  0.00  0.00    +0.000 HD
ATOM     10  H   UNL     1      13.473  -9.769  -2.334  0.00  0.00    +0.000 HD
ENDBRANCH   4   7
ENDBRANCH   1   4
BRANCH   1  11
ATOM     11  C   UNL     1       9.720 -10.189  -0.374  0.00  0.00    +0.000 C 
ATOM     12  H   UNL     1       9.464 -11.145   0.096  0.00  0.00    +0.000 HD
BRANCH  11  13
ATOM     13  C   UNL     1       8.448  -9.375  -0.572  0.00  0.00    +0.000 C 
ATOM     14  H   UNL     1       7.568 -10.026  -0.617  0.00  0.00    +0.000 HD
ATOM     15  H   UNL     1       8.308  -8.652   0.237  0.00  0.00    +0.000 HD
ATOM     16  H   UNL     1       8.486  -8.834  -1.524  0.00  0.00    +0.000 HD
ENDBRANCH  11  13
BRANCH  11  17
ATOM     17  O   UNL     1      10.576  -9.487   0.524  0.00  0.00    +0.000 OA
ATOM     18  H   UNL     1      11.441  -9.933   0.521  0.00  0.00    +0.000 HD
ENDBRANCH  11  17
ENDBRANCH   1  11
TORSDOF 5
ENDMDL
MODEL 3
REMARK VINA RESULT:    -3.416      1.656      3.387
REMARK INTER + INTRA:          -4.173
REMARK INTER:                  -4.139
REMARK INTRA:                  -0.034
REMARK UNBOUND:                -0.058
REMARK  Name = 22386
REMARK  5 active torsions:
REMARK  status: ('A' for Active; 'I' for Inactive)
REMARK    1  A    between atoms: O_1  and  C_3
REMARK    2  A    between atoms: C_2  and  C_3
REMARK    3  A    between atoms: C_2  and  C_4
REMARK    4  A    between atoms: C_3  and  C_5
REMARK    5  A    between atoms: C_4  and  C_6
REMARK                            x       y       z     vdW  Elec       q    Type
REMARK                         _______ _______ _______ _____ _____    ______ ____
ROOT
ATOM      1  C   UNL     1       1.755  -3.663  15.792  0.00  0.00    +0.000 C 
ATOM      2  H   UNL     1       2.414  -3.956  16.618  0.00  0.00    +0.000 HD
ATOM      3  H   UNL     1       1.323  -2.687  16.046  0.00  0.00    +0.000 HD
ENDROOT
BRANCH   1   4
ATOM      4  C   UNL     1       2.597  -3.535  14.520  0.00  0.00    +0.000 C 
ATOM      5  H   UNL     1       1.969  -3.184  13.693  0.00  0.00    +0.000 HD
ATOM      6  H   UNL     1       2.998  -4.513  14.231  0.00  0.00    +0.000 HD
BRANCH   4   7
ATOM      7  C   UNL     1       3.753  -2.565  14.714  0.00  0.00    +0.000 C 
ATOM      8  H   UNL     1       4.331  -2.475  13.789  0.00  0.00    +0.000 HD
ATOM      9  H   UNL     1       4.427  -2.911  15.504  0.00  0.00    +0.000 HD
ATOM     10  H   UNL     1       3.387  -1.569  14.985  0.00  0.00    +0.000 HD
ENDBRANCH   4   7
ENDBRANCH   1   4
BRANCH   1  11
ATOM     11  C   UNL     1       0.632  -4.694  15.639  0.00  0.00    +0.000 C 
ATOM     12  H   UNL     1      -0.331  -4.236  15.889  0.00  0.00    +0.000 HD
BRANCH  11  13
ATOM     13  C   UNL     1       0.856  -5.904  16.536  0.00  0.00    +0.000 C 
ATOM     14  H   UNL     1       1.506  -6.640  16.049  0.00  0.00    +0.000 HD
ATOM     15  H   UNL     1       1.308  -5.614  17.489  0.00  0.00    +0.000 HD
ATOM     16  H   UNL     1      -0.094  -6.410  16.738  0.00  0.00    +0.000 HD
ENDBRANCH  11  13
BRANCH  11  17
ATOM     17  O   UNL     1       0.555  -5.137  14.286  0.00  0.00    +0.000 OA
ATOM     18  H   UNL     1       0.029  -4.487  13.789  0.00  0.00    +0.000 HD
ENDBRANCH  11  17
ENDBRANCH   1  11
TORSDOF 5
ENDMDL
MODEL 4
REMARK VINA RESULT:    -3.330     15.464     15.708
REMARK INTER + INTRA:          -4.069
REMARK INTER:                  -4.028
REMARK INTRA:                  -0.041
REMARK UNBOUND:                -0.058
REMARK  Name = 22386
REMARK  5 active torsions:
REMARK  status: ('A' for Active; 'I' for Inactive)
REMARK    1  A    between atoms: O_1  and  C_3
REMARK    2  A    between atoms: C_2  and  C_3
REMARK    3  A    between atoms: C_2  and  C_4
REMARK    4  A    between atoms: C_3  and  C_5
REMARK    5  A    between atoms: C_4  and  C_6
REMARK                            x       y       z     vdW  Elec       q    Type
REMARK                         _______ _______ _______ _____ _____    ______ ____
ROOT
ATOM      1  C   UNL     1       2.244 -12.384   2.596  0.00  0.00    +0.000 C 
ATOM      2  H   UNL     1       1.654 -12.970   1.880  0.00  0.00    +0.000 HD
ATOM      3  H   UNL     1       1.544 -11.952   3.322  0.00  0.00    +0.000 HD
ENDROOT
BRANCH   1   4
ATOM      4  C   UNL     1       3.213 -13.325   3.315  0.00  0.00    +0.000 C 
ATOM      5  H   UNL     1       3.398 -12.961   4.332  0.00  0.00    +0.000 HD
ATOM      6  H   UNL     1       4.179 -13.342   2.796  0.00  0.00    +0.000 HD
BRANCH   4   7
ATOM      7  C   UNL     1       2.665 -14.742   3.384  0.00  0.00    +0.000 C 
ATOM      8  H   UNL     1       3.112 -15.360   2.600  0.00  0.00    +0.000 HD
ATOM      9  H   UNL     1       1.580 -14.750   3.246  0.00  0.00    +0.000 HD
ATOM     10  H   UNL     1       2.892 -15.203   4.351  0.00  0.00    +0.000 HD
ENDBRANCH   4   7
ENDBRANCH   1   4
BRANCH   1  11
ATOM     11  C   UNL     1       2.974 -11.257   1.858  0.00  0.00    +0.000 C 
ATOM     12  H   UNL     1       3.133 -10.410   2.535  0.00  0.00    +0.000 HD
BRANCH  11  13
ATOM     13  C   UNL     1       2.189 -10.782   0.642  0.00  0.00    +0.000 C 
ATOM     14  H   UNL     1       1.897 -11.627   0.009  0.00  0.00    +0.000 HD
ATOM     15  H   UNL     1       1.287 -10.238   0.939  0.00  0.00    +0.000 HD
ATOM     16  H   UNL     1       2.807 -10.125   0.022  0.00  0.00    +0.000 HD
ENDBRANCH  11  13
BRANCH  11  17
ATOM     17  O   UNL     1       4.257 -11.705   1.427  0.00  0.00    +0.000 OA
ATOM     18  H   UNL     1       4.513 -12.459   1.985  0.00  0.00    +0.000 HD
ENDBRANCH  11  17
ENDBRANCH   1  11
TORSDOF 5
ENDMDL
MODEL 5
REMARK VINA RESULT:    -3.250      2.991      3.559
REMARK INTER + INTRA:          -3.973
REMARK INTER:                  -3.915
REMARK INTRA:                  -0.057
REMARK UNBOUND:                -0.058
REMARK  Name = 22386
REMARK  5 active torsions:
REMARK  status: ('A' for Active; 'I' for Inactive)
REMARK    1  A    between atoms: O_1  and  C_3
REMARK    2  A    between atoms: C_2  and  C_3
REMARK    3  A    between atoms: C_2  and  C_4
REMARK    4  A    between atoms: C_3  and  C_5
REMARK    5  A    between atoms: C_4  and  C_6
REMARK                            x       y       z     vdW  Elec       q    Type
REMARK                         _______ _______ _______ _____ _____    ______ ____
ROOT
ATOM      1  C   UNL     1      -0.012  -6.338  16.611  0.00  0.00    +0.000 C 
ATOM      2  H   UNL     1      -0.837  -5.633  16.779  0.00  0.00    +0.000 HD
ATOM      3  H   UNL     1       0.865  -5.949  17.143  0.00  0.00    +0.000 HD
ENDROOT
BRANCH   1   4
ATOM      4  C   UNL     1      -0.406  -7.697  17.194  0.00  0.00    +0.000 C 
ATOM      5  H   UNL     1       0.139  -8.494  16.677  0.00  0.00    +0.000 HD
ATOM      6  H   UNL     1      -1.475  -7.880  17.039  0.00  0.00    +0.000 HD
BRANCH   4   7
ATOM      7  C   UNL     1      -0.104  -7.771  18.683  0.00  0.00    +0.000 C 
ATOM      8  H   UNL     1       0.871  -7.321  18.896  0.00  0.00    +0.000 HD
ATOM      9  H   UNL     1      -0.081  -8.809  19.027  0.00  0.00    +0.000 HD
ATOM     10  H   UNL     1      -0.861  -7.233  19.263  0.00  0.00    +0.000 HD
ENDBRANCH   4   7
ENDBRANCH   1   4
BRANCH   1  11
ATOM     11  C   UNL     1       0.296  -6.420  15.112  0.00  0.00    +0.000 C 
ATOM     12  H   UNL     1      -0.563  -6.842  14.578  0.00  0.00    +0.000 HD
BRANCH  11  13
ATOM     13  C   UNL     1       1.523  -7.280  14.839  0.00  0.00    +0.000 C 
ATOM     14  H   UNL     1       2.375  -6.662  14.530  0.00  0.00    +0.000 HD
ATOM     15  H   UNL     1       1.811  -7.855  15.725  0.00  0.00    +0.000 HD
ATOM     16  H   UNL     1       1.326  -7.976  14.017  0.00  0.00    +0.000 HD
ENDBRANCH  11  13
BRANCH  11  17
ATOM     17  O   UNL     1       0.526  -5.115  14.587  0.00  0.00    +0.000 OA
ATOM     18  H   UNL     1       1.366  -5.135  14.097  0.00  0.00    +0.000 HD
ENDBRANCH  11  17
ENDBRANCH   1  11
TORSDOF 5
ENDMDL
MODEL 6
REMARK VINA RESULT:    -3.245     17.150     18.011
REMARK INTER + INTRA:          -3.967
REMARK INTER:                  -3.895
REMARK INTRA:                  -0.072
REMARK UNBOUND:                -0.058
REMARK  Name = 22386
REMARK  5 active torsions:
REMARK  status: ('A' for Active; 'I' for Inactive)
REMARK    1  A    between atoms: O_1  and  C_3
REMARK    2  A    between atoms: C_2  and  C_3
REMARK    3  A    between atoms: C_2  and  C_4
REMARK    4  A    between atoms: C_3  and  C_5
REMARK    5  A    between atoms: C_4  and  C_6
REMARK                            x       y       z     vdW  Elec       q    Type
REMARK                         _______ _______ _______ _____ _____    ______ ____
ROOT
ATOM      1  C   UNL     1      10.041  -1.834  -0.468  0.00  0.00    +0.000 C 
ATOM      2  H   UNL     1      10.753  -2.657  -0.335  0.00  0.00    +0.000 HD
ATOM      3  H   UNL     1      10.529  -0.917  -0.116  0.00  0.00    +0.000 HD
ENDROOT
BRANCH   1   4
ATOM      4  C   UNL     1       9.719  -1.704  -1.959  0.00  0.00    +0.000 C 
ATOM      5  H   UNL     1      10.202  -0.808  -2.366  0.00  0.00    +0.000 HD
ATOM      6  H   UNL     1       8.639  -1.585  -2.104  0.00  0.00    +0.000 HD
BRANCH   4   7
ATOM      7  C   UNL     1      10.190  -2.922  -2.738  0.00  0.00    +0.000 C 
ATOM      8  H   UNL     1      11.272  -3.048  -2.628  0.00  0.00    +0.000 HD
ATOM      9  H   UNL     1       9.967  -2.816  -3.804  0.00  0.00    +0.000 HD
ATOM     10  H   UNL     1       9.703  -3.832  -2.373  0.00  0.00    +0.000 HD
ENDBRANCH   4   7
ENDBRANCH   1   4
BRANCH   1  11
ATOM     11  C   UNL     1       8.787  -2.099   0.372  0.00  0.00    +0.000 C 
ATOM     12  H   UNL     1       8.636  -3.179   0.486  0.00  0.00    +0.000 HD
BRANCH  11  13
ATOM     13  C   UNL     1       7.546  -1.488  -0.266  0.00  0.00    +0.000 C 
ATOM     14  H   UNL     1       7.408  -0.451   0.059  0.00  0.00    +0.000 HD
ATOM     15  H   UNL     1       7.609  -1.508  -1.358  0.00  0.00    +0.000 HD
ATOM     16  H   UNL     1       6.650  -2.036   0.044  0.00  0.00    +0.000 HD
ENDBRANCH  11  13
BRANCH  11  17
ATOM     17  O   UNL     1       8.948  -1.550   1.678  0.00  0.00    +0.000 OA
ATOM     18  H   UNL     1       8.127  -1.715   2.173  0.00  0.00    +0.000 HD
ENDBRANCH  11  17
ENDBRANCH   1  11
TORSDOF 5
ENDMDL
MODEL 7
REMARK VINA RESULT:    -3.235     15.516     16.176
REMARK INTER + INTRA:          -3.955
REMARK INTER:                  -3.850
REMARK INTRA:                  -0.104
REMARK UNBOUND:                -0.058
REMARK  Name = 22386
REMARK  5 active torsions:
REMARK  status: ('A' for Active; 'I' for Inactive)
REMARK    1  A    between atoms: O_1  and  C_3
REMARK    2  A    between atoms: C_2  and  C_3
REMARK    3  A    between atoms: C_2  and  C_4
REMARK    4  A    between atoms: C_3  and  C_5
REMARK    5  A    between atoms: C_4  and  C_6
REMARK                            x       y       z     vdW  Elec       q    Type
REMARK                         _______ _______ _______ _____ _____    ______ ____
ROOT
ATOM      1  C   UNL     1       3.575 -11.831   1.357  0.00  0.00    +0.000 C 
ATOM      2  H   UNL     1       3.016 -12.395   0.600  0.00  0.00    +0.000 HD
ATOM      3  H   UNL     1       3.638 -10.791   1.011  0.00  0.00    +0.000 HD
ENDROOT
BRANCH   1   4
ATOM      4  C   UNL     1       2.802 -11.886   2.676  0.00  0.00    +0.000 C 
ATOM      5  H   UNL     1       2.228 -10.962   2.809  0.00  0.00    +0.000 HD
ATOM      6  H   UNL     1       3.498 -11.960   3.520  0.00  0.00    +0.000 HD
BRANCH   4   7
ATOM      7  C   UNL     1       1.852 -13.073   2.715  0.00  0.00    +0.000 C 
ATOM      8  H   UNL     1       0.850 -12.767   2.399  0.00  0.00    +0.000 HD
ATOM      9  H   UNL     1       1.778 -13.483   3.727  0.00  0.00    +0.000 HD
ATOM     10  H   UNL     1       2.192 -13.869   2.045  0.00  0.00    +0.000 HD
ENDBRANCH   4   7
ENDBRANCH   1   4
BRANCH   1  11
ATOM     11  C   UNL     1       4.987 -12.410   1.490  0.00  0.00    +0.000 C 
ATOM     12  H   UNL     1       5.711 -11.743   1.008  0.00  0.00    +0.000 HD
BRANCH  11  13
ATOM     13  C   UNL     1       5.087 -13.793   0.860  0.00  0.00    +0.000 C 
ATOM     14  H   UNL     1       4.223 -13.996   0.218  0.00  0.00    +0.000 HD
ATOM     15  H   UNL     1       5.999 -13.892   0.262  0.00  0.00    +0.000 HD
ATOM     16  H   UNL     1       5.091 -14.566   1.635  0.00  0.00    +0.000 HD
ENDBRANCH  11  13
BRANCH  11  17
ATOM     17  O   UNL     1       5.348 -12.508   2.866  0.00  0.00    +0.000 OA
ATOM     18  H   UNL     1       6.173 -12.009   2.994  0.00  0.00    +0.000 HD
ENDBRANCH  11  17
ENDBRANCH   1  11
TORSDOF 5
ENDMDL
MODEL 8
REMARK VINA RESULT:    -3.230      2.472      3.635
REMARK INTER + INTRA:          -3.949
REMARK INTER:                  -3.932
REMARK INTRA:                  -0.017
REMARK UNBOUND:                -0.058
REMARK  Name = 22386
REMARK  5 active torsions:
REMARK  status: ('A' for Active; 'I' for Inactive)
REMARK    1  A    between atoms: O_1  and  C_3
REMARK    2  A    between atoms: C_2  and  C_3
REMARK    3  A    between atoms: C_2  and  C_4
REMARK    4  A    between atoms: C_3  and  C_5
REMARK    5  A    between atoms: C_4  and  C_6
REMARK                            x       y       z     vdW  Elec       q    Type
REMARK                         _______ _______ _______ _____ _____    ______ ____
ROOT
ATOM      1  C   UNL     1       1.363  -7.179  14.767  0.00  0.00    +0.000 C 
ATOM      2  H   UNL     1       0.512  -7.661  14.271  0.00  0.00    +0.000 HD
ATOM      3  H   UNL     1       1.731  -7.871  15.535  0.00  0.00    +0.000 HD
ENDROOT
BRANCH   1   4
ATOM      4  C   UNL     1       2.460  -6.937  13.727  0.00  0.00    +0.000 C 
ATOM      5  H   UNL     1       3.263  -6.336  14.167  0.00  0.00    +0.000 HD
ATOM      6  H   UNL     1       2.059  -6.371  12.878  0.00  0.00    +0.000 HD
BRANCH   4   7
ATOM      7  C   UNL     1       3.040  -8.247  13.216  0.00  0.00    +0.000 C 
ATOM      8  H   UNL     1       2.260  -8.845  12.735  0.00  0.00    +0.000 HD
ATOM      9  H   UNL     1       3.462  -8.836  14.036  0.00  0.00    +0.000 HD
ATOM     10  H   UNL     1       3.830  -8.064  12.480  0.00  0.00    +0.000 HD
ENDBRANCH   4   7
ENDBRANCH   1   4
BRANCH   1  11
ATOM     11  C   UNL     1       0.902  -5.878  15.432  0.00  0.00    +0.000 C 
ATOM     12  H   UNL     1       1.720  -5.452  16.024  0.00  0.00    +0.000 HD
BRANCH  11  13
ATOM     13  C   UNL     1      -0.301  -6.108  16.337  0.00  0.00    +0.000 C 
ATOM     14  H   UNL     1      -0.252  -5.467  17.225  0.00  0.00    +0.000 HD
ATOM     15  H   UNL     1      -1.239  -5.907  15.811  0.00  0.00    +0.000 HD
ATOM     16  H   UNL     1      -0.315  -7.142  16.697  0.00  0.00    +0.000 HD
ENDBRANCH  11  13
BRANCH  11  17
ATOM     17  O   UNL     1       0.550  -4.918  14.439  0.00  0.00    +0.000 OA
ATOM     18  H   UNL     1       0.630  -4.034  14.836  0.00  0.00    +0.000 HD
ENDBRANCH  11  17
ENDBRANCH   1  11
TORSDOF 5
ENDMDL
MODEL 9
REMARK VINA RESULT:    -3.191     15.461     16.006
REMARK INTER + INTRA:          -3.902
REMARK INTER:                  -3.878
REMARK INTRA:                  -0.025
REMARK UNBOUND:                -0.058
REMARK  Name = 22386
REMARK  5 active torsions:
REMARK  status: ('A' for Active; 'I' for Inactive)
REMARK    1  A    between atoms: O_1  and  C_3
REMARK    2  A    between atoms: C_2  and  C_3
REMARK    3  A    between atoms: C_2  and  C_4
REMARK    4  A    between atoms: C_3  and  C_5
REMARK    5  A    between atoms: C_4  and  C_6
REMARK                            x       y       z     vdW  Elec       q    Type
REMARK                         _______ _______ _______ _____ _____    ______ ____
ROOT
ATOM      1  C   UNL     1      -8.910   7.626  19.474  0.00  0.00    +0.000 C 
ATOM      2  H   UNL     1      -9.283   6.601  19.597  0.00  0.00    +0.000 HD
ATOM      3  H   UNL     1      -9.555   8.283  20.070  0.00  0.00    +0.000 HD
ENDROOT
BRANCH   1   4
ATOM      4  C   UNL     1      -7.478   7.690  20.011  0.00  0.00    +0.000 C 
ATOM      5  H   UNL     1      -7.406   8.462  20.785  0.00  0.00    +0.000 HD
ATOM      6  H   UNL     1      -6.785   7.968  19.208  0.00  0.00    +0.000 HD
BRANCH   4   7
ATOM      7  C   UNL     1      -7.043   6.355  20.596  0.00  0.00    +0.000 C 
ATOM      8  H   UNL     1      -7.894   5.670  20.653  0.00  0.00    +0.000 HD
ATOM      9  H   UNL     1      -6.641   6.482  21.606  0.00  0.00    +0.000 HD
ATOM     10  H   UNL     1      -6.271   5.888  19.975  0.00  0.00    +0.000 HD
ENDBRANCH   4   7
ENDBRANCH   1   4
BRANCH   1  11
ATOM     11  C   UNL     1      -8.992   8.030  17.999  0.00  0.00    +0.000 C 
ATOM     12  H   UNL     1      -8.037   7.822  17.502  0.00  0.00    +0.000 HD
BRANCH  11  13
ATOM     13  C   UNL     1      -9.324   9.508  17.841  0.00  0.00    +0.000 C 
ATOM     14  H   UNL     1      -9.860   9.692  16.903  0.00  0.00    +0.000 HD
ATOM     15  H   UNL     1      -9.938   9.868  18.672  0.00  0.00    +0.000 HD
ATOM     16  H   UNL     1      -8.406  10.103  17.800  0.00  0.00    +0.000 HD
ENDBRANCH  11  13
BRANCH  11  17
ATOM     17  O   UNL     1      -9.994   7.263  17.336  0.00  0.00    +0.000 OA
ATOM     18  H   UNL     1     -10.860   7.552  17.669  0.00  0.00    +0.000 HD
ENDBRANCH  11  17
ENDBRANCH   1  11
TORSDOF 5
ENDMDL
MODEL 10
REMARK VINA RESULT:    -3.111     20.717     21.819
REMARK INTER + INTRA:          -3.806
REMARK INTER:                  -3.747
REMARK INTRA:                  -0.058
REMARK UNBOUND:                -0.058
REMARK  Name = 22386
REMARK  5 active torsions:
REMARK  status: ('A' for Active; 'I' for Inactive)
REMARK    1  A    between atoms: O_1  and  C_3
REMARK    2  A    between atoms: C_2  and  C_3
REMARK    3  A    between atoms: C_2  and  C_4
REMARK    4  A    between atoms: C_3  and  C_5
REMARK    5  A    between atoms: C_4  and  C_6
REMARK                            x       y       z     vdW  Elec       q    Type
REMARK                         _______ _______ _______ _____ _____    ______ ____
ROOT
ATOM      1  C   UNL     1       5.632  11.726   2.108  0.00  0.00    +0.000 C 
ATOM      2  H   UNL     1       6.067  10.790   2.480  0.00  0.00    +0.000 HD
ATOM      3  H   UNL     1       4.541  11.630   2.175  0.00  0.00    +0.000 HD
ENDROOT
BRANCH   1   4
ATOM      4  C   UNL     1       6.101  12.873   3.005  0.00  0.00    +0.000 C 
ATOM      5  H   UNL     1       5.625  13.809   2.692  0.00  0.00    +0.000 HD
ATOM      6  H   UNL     1       7.185  13.012   2.907  0.00  0.00    +0.000 HD
BRANCH   4   7
ATOM      7  C   UNL     1       5.768  12.609   4.465  0.00  0.00    +0.000 C 
ATOM      8  H   UNL     1       6.514  11.942   4.910  0.00  0.00    +0.000 HD
ATOM      9  H   UNL     1       4.787  12.135   4.565  0.00  0.00    +0.000 HD
ATOM     10  H   UNL     1       5.760  13.541   5.040  0.00  0.00    +0.000 HD
ENDBRANCH   4   7
ENDBRANCH   1   4
BRANCH   1  11
ATOM     11  C   UNL     1       6.037  11.935   0.645  0.00  0.00    +0.000 C 
ATOM     12  H   UNL     1       6.604  11.067   0.287  0.00  0.00    +0.000 HD
BRANCH  11  13
ATOM     13  C   UNL     1       6.884  13.188   0.472  0.00  0.00    +0.000 C 
ATOM     14  H   UNL     1       7.240  13.283  -0.560  0.00  0.00    +0.000 HD
ATOM     15  H   UNL     1       6.320  14.089   0.732  0.00  0.00    +0.000 HD
ATOM     16  H   UNL     1       7.775  13.137   1.107  0.00  0.00    +0.000 HD
ENDBRANCH  11  13
BRANCH  11  17
ATOM     17  O   UNL     1       4.875  12.052  -0.173  0.00  0.00    +0.000 OA
ATOM     18  H   UNL     1       4.431  12.886   0.058  0.00  0.00    +0.000 HD
ENDBRANCH  11  17
ENDBRANCH   1  11
TORSDOF 5
ENDMDL
