MODEL 1
REMARK VINA RESULT:    -3.555      0.000      0.000
REMARK INTER + INTRA:          -4.235
REMARK INTER:                  -4.188
REMARK INTRA:                  -0.047
REMARK UNBOUND:                -0.057
REMARK  Name = 7895
REMARK  4 active torsions:
REMARK  status: ('A' for Active; 'I' for Inactive)
REMARK    1  A    between atoms: C_2  and  C_3
REMARK    2  A    between atoms: C_2  and  C_4
REMARK    3  A    between atoms: C_3  and  C_5
REMARK    4  A    between atoms: C_5  and  C_6
REMARK                            x       y       z     vdW  Elec       q    Type
REMARK                         _______ _______ _______ _____ _____    ______ ____
ROOT
ATOM      1  C   UNL     1       1.327  -3.547  15.330  0.00  0.00    +0.000 C 
ATOM      2  H   UNL     1       0.640  -3.087  16.050  0.00  0.00    +0.000 HD
ATOM      3  H   UNL     1       1.166  -3.086  14.350  0.00  0.00    +0.000 HD
ENDROOT
BRANCH   1   4
ATOM      4  C   UNL     1       2.770  -3.328  15.776  0.00  0.00    +0.000 C 
ATOM      5  H   UNL     1       2.790  -2.734  16.698  0.00  0.00    +0.000 HD
ATOM      6  H   UNL     1       3.241  -4.291  16.007  0.00  0.00    +0.000 HD
BRANCH   4   7
ATOM      7  C   UNL     1       3.583  -2.619  14.704  0.00  0.00    +0.000 C 
ATOM      8  H   UNL     1       3.114  -1.671  14.420  0.00  0.00    +0.000 HD
ATOM      9  H   UNL     1       3.675  -3.240  13.807  0.00  0.00    +0.000 HD
ATOM     10  H   UNL     1       4.590  -2.403  15.073  0.00  0.00    +0.000 HD
ENDBRANCH   4   7
ENDBRANCH   1   4
BRANCH   1  12
ATOM     11  O   UNL     1       1.375  -5.736  14.303  0.00  0.00    +0.000 OA
ATOM     12  C   UNL     1       0.970  -5.019  15.218  0.00  0.00    +0.000 C 
BRANCH  12  13
ATOM     13  C   UNL     1       0.077  -5.569  16.299  0.00  0.00    +0.000 C 
ATOM     14  H   UNL     1       0.659  -5.722  17.212  0.00  0.00    +0.000 HD
ATOM     15  H   UNL     1      -0.360  -6.514  15.967  0.00  0.00    +0.000 HD
ATOM     16  H   UNL     1      -0.729  -4.860  16.509  0.00  0.00    +0.000 HD
ENDBRANCH  12  13
ENDBRANCH   1  12
TORSDOF 4
ENDMDL
MODEL 2
REMARK VINA RESULT:    -3.491     15.238     16.092
REMARK INTER + INTRA:          -4.160
REMARK INTER:                  -4.088
REMARK INTRA:                  -0.071
REMARK UNBOUND:                -0.057
REMARK  Name = 7895
REMARK  4 active torsions:
REMARK  status: ('A' for Active; 'I' for Inactive)
REMARK    1  A    between atoms: C_2  and  C_3
REMARK    2  A    between atoms: C_2  and  C_4
REMARK    3  A    between atoms: C_3  and  C_5
REMARK    4  A    between atoms: C_5  and  C_6
REMARK                            x       y       z     vdW  Elec       q    Type
REMARK                         _______ _______ _______ _____ _____    ______ ____
ROOT
ATOM      1  C   UNL     1       4.391  -2.594  -1.088  0.00  0.00    +0.000 C 
ATOM      2  H   UNL     1       4.697  -2.860  -2.106  0.00  0.00    +0.000 HD
ATOM      3  H   UNL     1       4.841  -1.629  -0.829  0.00  0.00    +0.000 HD
ENDROOT
BRANCH   1   4
ATOM      4  C   UNL     1       2.871  -2.497  -1.010  0.00  0.00    +0.000 C 
ATOM      5  H   UNL     1       2.419  -2.988  -1.881  0.00  0.00    +0.000 HD
ATOM      6  H   UNL     1       2.506  -3.028  -0.122  0.00  0.00    +0.000 HD
BRANCH   4   7
ATOM      7  C   UNL     1       2.407  -1.050  -0.953  0.00  0.00    +0.000 C 
ATOM      8  H   UNL     1       1.314  -0.989  -0.942  0.00  0.00    +0.000 HD
ATOM      9  H   UNL     1       2.775  -0.486  -1.816  0.00  0.00    +0.000 HD
ATOM     10  H   UNL     1       2.783  -0.567  -0.046  0.00  0.00    +0.000 HD
ENDBRANCH   4   7
ENDBRANCH   1   4
BRANCH   1  12
ATOM     11  O   UNL     1       5.876  -4.396  -0.456  0.00  0.00    +0.000 OA
ATOM     12  C   UNL     1       4.957  -3.640  -0.143  0.00  0.00    +0.000 C 
BRANCH  12  13
ATOM     13  C   UNL     1       4.327  -3.709   1.224  0.00  0.00    +0.000 C 
ATOM     14  H   UNL     1       3.952  -2.721   1.505  0.00  0.00    +0.000 HD
ATOM     15  H   UNL     1       5.066  -4.054   1.950  0.00  0.00    +0.000 HD
ATOM     16  H   UNL     1       3.490  -4.413   1.209  0.00  0.00    +0.000 HD
ENDBRANCH  12  13
ENDBRANCH   1  12
TORSDOF 4
ENDMDL
MODEL 3
REMARK VINA RESULT:    -3.401      1.639      3.654
REMARK INTER + INTRA:          -4.054
REMARK INTER:                  -3.981
REMARK INTRA:                  -0.073
REMARK UNBOUND:                -0.057
REMARK  Name = 7895
REMARK  4 active torsions:
REMARK  status: ('A' for Active; 'I' for Inactive)
REMARK    1  A    between atoms: C_2  and  C_3
REMARK    2  A    between atoms: C_2  and  C_4
REMARK    3  A    between atoms: C_3  and  C_5
REMARK    4  A    between atoms: C_5  and  C_6
REMARK                            x       y       z     vdW  Elec       q    Type
REMARK                         _______ _______ _______ _____ _____    ______ ____
ROOT
ATOM      1  C   UNL     1       0.342  -6.638  15.188  0.00  0.00    +0.000 C 
ATOM      2  H   UNL     1       1.027  -7.451  15.456  0.00  0.00    +0.000 HD
ATOM      3  H   UNL     1      -0.258  -6.956  14.328  0.00  0.00    +0.000 HD
ENDROOT
BRANCH   1   4
ATOM      4  C   UNL     1      -0.571  -6.317  16.368  0.00  0.00    +0.000 C 
ATOM      5  H   UNL     1      -0.411  -5.281  16.692  0.00  0.00    +0.000 HD
ATOM      6  H   UNL     1      -1.620  -6.395  16.061  0.00  0.00    +0.000 HD
BRANCH   4   7
ATOM      7  C   UNL     1      -0.320  -7.254  17.538  0.00  0.00    +0.000 C 
ATOM      8  H   UNL     1       0.353  -6.796  18.270  0.00  0.00    +0.000 HD
ATOM      9  H   UNL     1       0.128  -8.194  17.199  0.00  0.00    +0.000 HD
ATOM     10  H   UNL     1      -1.261  -7.490  18.044  0.00  0.00    +0.000 HD
ENDBRANCH   4   7
ENDBRANCH   1   4
BRANCH   1  12
ATOM     11  O   UNL     1       1.921  -5.472  13.776  0.00  0.00    +0.000 OA
ATOM     12  C   UNL     1       1.178  -5.446  14.757  0.00  0.00    +0.000 C 
BRANCH  12  13
ATOM     13  C   UNL     1       1.054  -4.207  15.605  0.00  0.00    +0.000 C 
ATOM     14  H   UNL     1       1.878  -3.525  15.378  0.00  0.00    +0.000 HD
ATOM     15  H   UNL     1       1.072  -4.484  16.661  0.00  0.00    +0.000 HD
ATOM     16  H   UNL     1       0.108  -3.703  15.386  0.00  0.00    +0.000 HD
ENDBRANCH  12  13
ENDBRANCH   1  12
TORSDOF 4
ENDMDL
MODEL 4
REMARK VINA RESULT:    -3.376      1.443      3.531
REMARK INTER + INTRA:          -4.025
REMARK INTER:                  -3.996
REMARK INTRA:                  -0.028
REMARK UNBOUND:                -0.057
REMARK  Name = 7895
REMARK  4 active torsions:
REMARK  status: ('A' for Active; 'I' for Inactive)
REMARK    1  A    between atoms: C_2  and  C_3
REMARK    2  A    between atoms: C_2  and  C_4
REMARK    3  A    between atoms: C_3  and  C_5
REMARK    4  A    between atoms: C_5  and  C_6
REMARK                            x       y       z     vdW  Elec       q    Type
REMARK                         _______ _______ _______ _____ _____    ______ ____
ROOT
ATOM      1  C   UNL     1       0.935  -4.756  15.168  0.00  0.00    +0.000 C 
ATOM      2  H   UNL     1       1.218  -5.544  14.460  0.00  0.00    +0.000 HD
ATOM      3  H   UNL     1       0.349  -4.000  14.633  0.00  0.00    +0.000 HD
ENDROOT
BRANCH   1   4
ATOM      4  C   UNL     1       0.106  -5.349  16.303  0.00  0.00    +0.000 C 
ATOM      5  H   UNL     1       0.726  -5.456  17.201  0.00  0.00    +0.000 HD
ATOM      6  H   UNL     1      -0.714  -4.669  16.562  0.00  0.00    +0.000 HD
BRANCH   4   7
ATOM      7  C   UNL     1      -0.469  -6.704  15.924  0.00  0.00    +0.000 C 
ATOM      8  H   UNL     1      -1.509  -6.795  16.254  0.00  0.00    +0.000 HD
ATOM      9  H   UNL     1       0.109  -7.516  16.379  0.00  0.00    +0.000 HD
ATOM     10  H   UNL     1      -0.443  -6.837  14.839  0.00  0.00    +0.000 HD
ENDBRANCH   4   7
ENDBRANCH   1   4
BRANCH   1  12
ATOM     11  O   UNL     1       2.903  -4.566  16.560  0.00  0.00    +0.000 OA
ATOM     12  C   UNL     1       2.209  -4.093  15.661  0.00  0.00    +0.000 C 
BRANCH  12  13
ATOM     13  C   UNL     1       2.589  -2.800  14.985  0.00  0.00    +0.000 C 
ATOM     14  H   UNL     1       1.854  -2.029  15.231  0.00  0.00    +0.000 HD
ATOM     15  H   UNL     1       2.631  -2.952  13.905  0.00  0.00    +0.000 HD
ATOM     16  H   UNL     1       3.573  -2.476  15.337  0.00  0.00    +0.000 HD
ENDBRANCH  12  13
ENDBRANCH   1  12
TORSDOF 4
ENDMDL
MODEL 5
REMARK VINA RESULT:    -3.330     15.216     15.899
REMARK INTER + INTRA:          -3.971
REMARK INTER:                  -3.931
REMARK INTRA:                  -0.040
REMARK UNBOUND:                -0.057
REMARK  Name = 7895
REMARK  4 active torsions:
REMARK  status: ('A' for Active; 'I' for Inactive)
REMARK    1  A    between atoms: C_2  and  C_3
REMARK    2  A    between atoms: C_2  and  C_4
REMARK    3  A    between atoms: C_3  and  C_5
REMARK    4  A    between atoms: C_5  and  C_6
REMARK                            x       y       z     vdW  Elec       q    Type
REMARK                         _______ _______ _______ _____ _____    ______ ____
ROOT
ATOM      1  C   UNL     1       3.155 -12.270   2.889  0.00  0.00    +0.000 C 
ATOM      2  H   UNL     1       2.611 -11.458   3.383  0.00  0.00    +0.000 HD
ATOM      3  H   UNL     1       4.107 -12.421   3.410  0.00  0.00    +0.000 HD
ENDROOT
BRANCH   1   4
ATOM      4  C   UNL     1       2.330 -13.553   2.936  0.00  0.00    +0.000 C 
ATOM      5  H   UNL     1       1.356 -13.354   3.401  0.00  0.00    +0.000 HD
ATOM      6  H   UNL     1       2.128 -13.906   1.917  0.00  0.00    +0.000 HD
BRANCH   4   7
ATOM      7  C   UNL     1       3.043 -14.647   3.713  0.00  0.00    +0.000 C 
ATOM      8  H   UNL     1       2.910 -15.621   3.230  0.00  0.00    +0.000 HD
ATOM      9  H   UNL     1       2.661 -14.715   4.737  0.00  0.00    +0.000 HD
ATOM     10  H   UNL     1       4.116 -14.438   3.765  0.00  0.00    +0.000 HD
ENDBRANCH   4   7
ENDBRANCH   1   4
BRANCH   1  12
ATOM     11  O   UNL     1       4.462 -12.209   0.856  0.00  0.00    +0.000 OA
ATOM     12  C   UNL     1       3.466 -11.829   1.470  0.00  0.00    +0.000 C 
BRANCH  12  13
ATOM     13  C   UNL     1       2.477 -10.885   0.837  0.00  0.00    +0.000 C 
ATOM     14  H   UNL     1       1.606 -11.446   0.489  0.00  0.00    +0.000 HD
ATOM     15  H   UNL     1       2.951 -10.365   0.001  0.00  0.00    +0.000 HD
ATOM     16  H   UNL     1       2.150 -10.145   1.573  0.00  0.00    +0.000 HD
ENDBRANCH  12  13
ENDBRANCH   1  12
TORSDOF 4
ENDMDL
MODEL 6
REMARK VINA RESULT:    -3.303     18.780     19.546
REMARK INTER + INTRA:          -3.939
REMARK INTER:                  -3.880
REMARK INTRA:                  -0.059
REMARK UNBOUND:                -0.057
REMARK  Name = 7895
REMARK  4 active torsions:
REMARK  status: ('A' for Active; 'I' for Inactive)
REMARK    1  A    between atoms: C_2  and  C_3
REMARK    2  A    between atoms: C_2  and  C_4
REMARK    3  A    between atoms: C_3  and  C_5
REMARK    4  A    between atoms: C_5  and  C_6
REMARK                            x       y       z     vdW  Elec       q    Type
REMARK                         _______ _______ _______ _____ _____    ______ ____
ROOT
ATOM      1  C   UNL     1      10.642  -8.898  -1.311  0.00  0.00    +0.000 C 
ATOM      2  H   UNL     1      11.239  -8.662  -0.422  0.00  0.00    +0.000 HD
ATOM      3  H   UNL     1      10.572  -7.999  -1.933  0.00  0.00    +0.000 HD
ENDROOT
BRANCH   1   4
ATOM      4  C   UNL     1      11.305 -10.024  -2.098  0.00  0.00    +0.000 C 
ATOM      5  H   UNL     1      12.036 -10.542  -1.466  0.00  0.00    +0.000 HD
ATOM      6  H   UNL     1      10.555 -10.768  -2.391  0.00  0.00    +0.000 HD
BRANCH   4   7
ATOM      7  C   UNL     1      12.001  -9.499  -3.344  0.00  0.00    +0.000 C 
ATOM      8  H   UNL     1      11.353  -8.808  -3.893  0.00  0.00    +0.000 HD
ATOM      9  H   UNL     1      12.276 -10.320  -4.015  0.00  0.00    +0.000 HD
ATOM     10  H   UNL     1      12.915  -8.964  -3.071  0.00  0.00    +0.000 HD
ENDBRANCH   4   7
ENDBRANCH   1   4
BRANCH   1  12
ATOM     11  O   UNL     1       8.422  -8.413  -0.483  0.00  0.00    +0.000 OA
ATOM     12  C   UNL     1       9.240  -9.256  -0.850  0.00  0.00    +0.000 C 
BRANCH  12  13
ATOM     13  C   UNL     1       8.892 -10.722  -0.863  0.00  0.00    +0.000 C 
ATOM     14  H   UNL     1       9.636 -11.270  -1.447  0.00  0.00    +0.000 HD
ATOM     15  H   UNL     1       7.897 -10.857  -1.294  0.00  0.00    +0.000 HD
ATOM     16  H   UNL     1       8.890 -11.110   0.160  0.00  0.00    +0.000 HD
ENDBRANCH  12  13
ENDBRANCH   1  12
TORSDOF 4
ENDMDL
MODEL 7
REMARK VINA RESULT:    -3.266     16.017     17.076
REMARK INTER + INTRA:          -3.896
REMARK INTER:                  -3.822
REMARK INTRA:                  -0.074
REMARK UNBOUND:                -0.057
REMARK  Name = 7895
REMARK  4 active torsions:
REMARK  status: ('A' for Active; 'I' for Inactive)
REMARK    1  A    between atoms: C_2  and  C_3
REMARK    2  A    between atoms: C_2  and  C_4
REMARK    3  A    between atoms: C_3  and  C_5
REMARK    4  A    between atoms: C_5  and  C_6
REMARK                            x       y       z     vdW  Elec       q    Type
REMARK                         _______ _______ _______ _____ _____    ______ ____
ROOT
ATOM      1  C   UNL     1       5.046  -3.052  -2.128  0.00  0.00    +0.000 C 
ATOM      2  H   UNL     1       4.636  -3.991  -2.516  0.00  0.00    +0.000 HD
ATOM      3  H   UNL     1       5.398  -2.449  -2.973  0.00  0.00    +0.000 HD
ENDROOT
BRANCH   1   4
ATOM      4  C   UNL     1       3.968  -2.291  -1.362  0.00  0.00    +0.000 C 
ATOM      5  H   UNL     1       4.335  -1.294  -1.090  0.00  0.00    +0.000 HD
ATOM      6  H   UNL     1       3.089  -2.142  -2.001  0.00  0.00    +0.000 HD
BRANCH   4   7
ATOM      7  C   UNL     1       3.550  -3.032  -0.102  0.00  0.00    +0.000 C 
ATOM      8  H   UNL     1       4.139  -2.703   0.760  0.00  0.00    +0.000 HD
ATOM      9  H   UNL     1       3.686  -4.112  -0.220  0.00  0.00    +0.000 HD
ATOM     10  H   UNL     1       2.495  -2.845   0.116  0.00  0.00    +0.000 HD
ENDBRANCH   4   7
ENDBRANCH   1   4
BRANCH   1  12
ATOM     11  O   UNL     1       6.554  -4.542  -0.965  0.00  0.00    +0.000 OA
ATOM     12  C   UNL     1       6.248  -3.388  -1.263  0.00  0.00    +0.000 C 
BRANCH  12  13
ATOM     13  C   UNL     1       7.063  -2.218  -0.776  0.00  0.00    +0.000 C 
ATOM     14  H   UNL     1       6.505  -1.292  -0.934  0.00  0.00    +0.000 HD
ATOM     15  H   UNL     1       8.012  -2.184  -1.316  0.00  0.00    +0.000 HD
ATOM     16  H   UNL     1       7.267  -2.330   0.293  0.00  0.00    +0.000 HD
ENDBRANCH  12  13
ENDBRANCH   1  12
TORSDOF 4
ENDMDL
MODEL 8
REMARK VINA RESULT:    -3.249     15.571     16.483
REMARK INTER + INTRA:          -3.876
REMARK INTER:                  -3.815
REMARK INTRA:                  -0.061
REMARK UNBOUND:                -0.057
REMARK  Name = 7895
REMARK  4 active torsions:
REMARK  status: ('A' for Active; 'I' for Inactive)
REMARK    1  A    between atoms: C_2  and  C_3
REMARK    2  A    between atoms: C_2  and  C_4
REMARK    3  A    between atoms: C_3  and  C_5
REMARK    4  A    between atoms: C_5  and  C_6
REMARK                            x       y       z     vdW  Elec       q    Type
REMARK                         _______ _______ _______ _____ _____    ______ ____
ROOT
ATOM      1  C   UNL     1       5.824  -2.548  -0.786  0.00  0.00    +0.000 C 
ATOM      2  H   UNL     1       6.862  -2.719  -1.095  0.00  0.00    +0.000 HD
ATOM      3  H   UNL     1       5.723  -1.505  -0.467  0.00  0.00    +0.000 HD
ENDROOT
BRANCH   1   4
ATOM      4  C   UNL     1       4.882  -2.827  -1.953  0.00  0.00    +0.000 C 
ATOM      5  H   UNL     1       4.078  -3.500  -1.632  0.00  0.00    +0.000 HD
ATOM      6  H   UNL     1       4.404  -1.895  -2.280  0.00  0.00    +0.000 HD
BRANCH   4   7
ATOM      7  C   UNL     1       5.618  -3.449  -3.128  0.00  0.00    +0.000 C 
ATOM      8  H   UNL     1       5.526  -2.826  -4.023  0.00  0.00    +0.000 HD
ATOM      9  H   UNL     1       5.220  -4.443  -3.359  0.00  0.00    +0.000 HD
ATOM     10  H   UNL     1       6.682  -3.556  -2.896  0.00  0.00    +0.000 HD
ENDBRANCH   4   7
ENDBRANCH   1   4
BRANCH   1  12
ATOM     11  O   UNL     1       6.431  -3.986   1.060  0.00  0.00    +0.000 OA
ATOM     12  C   UNL     1       5.542  -3.433   0.415  0.00  0.00    +0.000 C 
BRANCH  12  13
ATOM     13  C   UNL     1       4.091  -3.605   0.786  0.00  0.00    +0.000 C 
ATOM     14  H   UNL     1       3.853  -4.670   0.845  0.00  0.00    +0.000 HD
ATOM     15  H   UNL     1       3.462  -3.117   0.038  0.00  0.00    +0.000 HD
ATOM     16  H   UNL     1       3.903  -3.146   1.761  0.00  0.00    +0.000 HD
ENDBRANCH  12  13
ENDBRANCH   1  12
TORSDOF 4
ENDMDL
MODEL 9
REMARK VINA RESULT:    -3.239     19.725     20.584
REMARK INTER + INTRA:          -3.863
REMARK INTER:                  -3.807
REMARK INTRA:                  -0.057
REMARK UNBOUND:                -0.057
REMARK  Name = 7895
REMARK  4 active torsions:
REMARK  status: ('A' for Active; 'I' for Inactive)
REMARK    1  A    between atoms: C_2  and  C_3
REMARK    2  A    between atoms: C_2  and  C_4
REMARK    3  A    between atoms: C_3  and  C_5
REMARK    4  A    between atoms: C_5  and  C_6
REMARK                            x       y       z     vdW  Elec       q    Type
REMARK                         _______ _______ _______ _____ _____    ______ ____
ROOT
ATOM      1  C   UNL     1      10.872  -9.261  -1.608  0.00  0.00    +0.000 C 
ATOM      2  H   UNL     1      10.415  -8.419  -2.140  0.00  0.00    +0.000 HD
ATOM      3  H   UNL     1      11.421  -8.871  -0.743  0.00  0.00    +0.000 HD
ENDROOT
BRANCH   1   4
ATOM      4  C   UNL     1       9.790 -10.231  -1.141  0.00  0.00    +0.000 C 
ATOM      5  H   UNL     1       9.519 -10.910  -1.959  0.00  0.00    +0.000 HD
ATOM      6  H   UNL     1      10.174 -10.855  -0.325  0.00  0.00    +0.000 HD
BRANCH   4   7
ATOM      7  C   UNL     1       8.548  -9.495  -0.667  0.00  0.00    +0.000 C 
ATOM      8  H   UNL     1       8.319  -8.649  -1.323  0.00  0.00    +0.000 HD
ATOM      9  H   UNL     1       8.683  -9.113   0.351  0.00  0.00    +0.000 HD
ATOM     10  H   UNL     1       7.685 -10.168  -0.665  0.00  0.00    +0.000 HD
ENDBRANCH   4   7
ENDBRANCH   1   4
BRANCH   1  12
ATOM     11  O   UNL     1      13.046  -9.541  -2.629  0.00  0.00    +0.000 OA
ATOM     12  C   UNL     1      11.877  -9.914  -2.541  0.00  0.00    +0.000 C 
BRANCH  12  13
ATOM     13  C   UNL     1      11.363 -11.062  -3.371  0.00  0.00    +0.000 C 
ATOM     14  H   UNL     1      11.685 -12.007  -2.925  0.00  0.00    +0.000 HD
ATOM     15  H   UNL     1      11.745 -10.975  -4.390  0.00  0.00    +0.000 HD
ATOM     16  H   UNL     1      10.270 -11.038  -3.398  0.00  0.00    +0.000 HD
ENDBRANCH  12  13
ENDBRANCH   1  12
TORSDOF 4
ENDMDL
MODEL 10
REMARK VINA RESULT:    -3.238     15.020     15.558
REMARK INTER + INTRA:          -3.862
REMARK INTER:                  -3.789
REMARK INTRA:                  -0.074
REMARK UNBOUND:                -0.057
REMARK  Name = 7895
REMARK  4 active torsions:
REMARK  status: ('A' for Active; 'I' for Inactive)
REMARK    1  A    between atoms: C_2  and  C_3
REMARK    2  A    between atoms: C_2  and  C_4
REMARK    3  A    between atoms: C_3  and  C_5
REMARK    4  A    between atoms: C_5  and  C_6
REMARK                            x       y       z     vdW  Elec       q    Type
REMARK                         _______ _______ _______ _____ _____    ______ ____
ROOT
ATOM      1  C   UNL     1       2.174 -12.586   2.714  0.00  0.00    +0.000 C 
ATOM      2  H   UNL     1       1.599 -12.311   3.605  0.00  0.00    +0.000 HD
ATOM      3  H   UNL     1       1.478 -12.948   1.948  0.00  0.00    +0.000 HD
ENDROOT
BRANCH   1   4
ATOM      4  C   UNL     1       2.936 -11.372   2.191  0.00  0.00    +0.000 C 
ATOM      5  H   UNL     1       2.840 -10.538   2.897  0.00  0.00    +0.000 HD
ATOM      6  H   UNL     1       4.005 -11.604   2.117  0.00  0.00    +0.000 HD
BRANCH   4   7
ATOM      7  C   UNL     1       2.423 -10.936   0.828  0.00  0.00    +0.000 C 
ATOM      8  H   UNL     1       1.979  -9.937   0.877  0.00  0.00    +0.000 HD
ATOM      9  H   UNL     1       1.665 -11.632   0.453  0.00  0.00    +0.000 HD
ATOM     10  H   UNL     1       3.244 -10.908   0.105  0.00  0.00    +0.000 HD
ENDBRANCH   4   7
ENDBRANCH   1   4
BRANCH   1  12
ATOM     11  O   UNL     1       2.928 -14.424   4.093  0.00  0.00    +0.000 OA
ATOM     12  C   UNL     1       3.094 -13.735   3.087  0.00  0.00    +0.000 C 
BRANCH  12  13
ATOM     13  C   UNL     1       4.244 -13.995   2.148  0.00  0.00    +0.000 C 
ATOM     14  H   UNL     1       4.062 -14.920   1.595  0.00  0.00    +0.000 HD
ATOM     15  H   UNL     1       5.172 -14.073   2.720  0.00  0.00    +0.000 HD
ATOM     16  H   UNL     1       4.334 -13.169   1.437  0.00  0.00    +0.000 HD
ENDBRANCH  12  13
ENDBRANCH   1  12
TORSDOF 4
ENDMDL
