MODEL 1
REMARK VINA RESULT:    -4.147      0.000      0.000
REMARK INTER + INTRA:          -5.475
REMARK INTER:                  -5.187
REMARK INTRA:                  -0.288
REMARK UNBOUND:                -0.238
REMARK  Name = 520098
REMARK  6 active torsions:
REMARK  status: ('A' for Active; 'I' for Inactive)
REMARK    1  A    between atoms: O_1  and  C_9
REMARK    2  A    between atoms: O_1  and  C_12
REMARK    3  A    between atoms: C_4  and  C_5
REMARK    4  A    between atoms: C_4  and  C_6
REMARK    5  A    between atoms: C_4  and  C_7
REMARK    6  A    between atoms: C_5  and  C_8
REMARK                            x       y       z     vdW  Elec       q    Type
REMARK                         _______ _______ _______ _____ _____    ______ ____
ROOT
ATOM      1  C   UNL     1       2.188  -7.456  14.621  0.00  0.00    +0.000 C 
ATOM      2  H   UNL     1       1.157  -7.824  14.540  0.00  0.00    +0.000 HD
ENDROOT
BRANCH   1   5
ATOM      3  N   UNL     1       3.367  -5.355  14.821  0.00  0.00    +0.000 NA
ATOM      4  N   UNL     1       0.999  -4.010  15.495  0.00  0.00    +0.000 NA
ATOM      5  C   UNL     1       2.183  -5.964  14.908  0.00  0.00    +0.000 A 
ATOM      6  C   UNL     1       1.020  -5.333  15.234  0.00  0.00    +0.000 A 
ATOM      7  C   UNL     1       3.346  -4.032  15.080  0.00  0.00    +0.000 A 
ATOM      8  C   UNL     1       2.183  -3.371  15.411  0.00  0.00    +0.000 A 
ATOM      9  H   UNL     1       4.297  -3.518  15.014  0.00  0.00    +0.000 HD
ATOM     10  H   UNL     1       2.167  -2.309  15.620  0.00  0.00    +0.000 HD
BRANCH   6  11
ATOM     11  O   UNL     1      -0.170  -6.001  15.314  0.00  0.00    +0.000 OA
BRANCH  11  12
ATOM     12  C   UNL     1      -0.728  -6.170  16.613  0.00  0.00    +0.000 C 
ATOM     13  H   UNL     1       0.087  -6.408  17.301  0.00  0.00    +0.000 HD
ATOM     14  H   UNL     1      -1.439  -7.003  16.629  0.00  0.00    +0.000 HD
ATOM     15  H   UNL     1      -1.203  -5.246  16.959  0.00  0.00    +0.000 HD
ENDBRANCH  11  12
ENDBRANCH   6  11
ENDBRANCH   1   5
BRANCH   1  16
ATOM     16  C   UNL     1       2.844  -7.739  13.265  0.00  0.00    +0.000 C 
ATOM     17  H   UNL     1       3.373  -8.700  13.264  0.00  0.00    +0.000 HD
ATOM     18  H   UNL     1       2.093  -7.770  12.468  0.00  0.00    +0.000 HD
ATOM     19  H   UNL     1       3.570  -6.959  13.010  0.00  0.00    +0.000 HD
ENDBRANCH   1  16
BRANCH   1  20
ATOM     20  C   UNL     1       2.868  -8.285  15.729  0.00  0.00    +0.000 C 
ATOM     21  H   UNL     1       3.653  -7.699  16.223  0.00  0.00    +0.000 HD
ATOM     22  H   UNL     1       3.362  -9.155  15.277  0.00  0.00    +0.000 HD
BRANCH  20  23
ATOM     23  C   UNL     1       1.891  -8.790  16.783  0.00  0.00    +0.000 C 
ATOM     24  H   UNL     1       1.120  -9.410  16.315  0.00  0.00    +0.000 HD
ATOM     25  H   UNL     1       2.395  -9.401  17.539  0.00  0.00    +0.000 HD
ATOM     26  H   UNL     1       1.394  -7.956  17.289  0.00  0.00    +0.000 HD
ENDBRANCH  20  23
ENDBRANCH   1  20
TORSDOF 6
ENDMDL
MODEL 2
REMARK VINA RESULT:    -4.048      1.772      3.078
REMARK INTER + INTRA:          -5.350
REMARK INTER:                  -5.141
REMARK INTRA:                  -0.210
REMARK UNBOUND:                -0.238
REMARK  Name = 520098
REMARK  6 active torsions:
REMARK  status: ('A' for Active; 'I' for Inactive)
REMARK    1  A    between atoms: O_1  and  C_9
REMARK    2  A    between atoms: O_1  and  C_12
REMARK    3  A    between atoms: C_4  and  C_5
REMARK    4  A    between atoms: C_4  and  C_6
REMARK    5  A    between atoms: C_4  and  C_7
REMARK    6  A    between atoms: C_5  and  C_8
REMARK                            x       y       z     vdW  Elec       q    Type
REMARK                         _______ _______ _______ _____ _____    ______ ____
ROOT
ATOM      1  C   UNL     1       2.996  -6.791  14.520  0.00  0.00    +0.000 C 
ATOM      2  H   UNL     1       3.551  -5.874  14.286  0.00  0.00    +0.000 HD
ENDROOT
BRANCH   1   5
ATOM      3  N   UNL     1       0.820  -7.447  15.345  0.00  0.00    +0.000 NA
ATOM      4  N   UNL     1       0.303  -4.844  16.253  0.00  0.00    +0.000 NA
ATOM      5  C   UNL     1       1.688  -6.442  15.209  0.00  0.00    +0.000 A 
ATOM      6  C   UNL     1       1.459  -5.171  15.641  0.00  0.00    +0.000 A 
ATOM      7  C   UNL     1      -0.336  -7.121  15.957  0.00  0.00    +0.000 A 
ATOM      8  C   UNL     1      -0.590  -5.842  16.403  0.00  0.00    +0.000 A 
ATOM      9  H   UNL     1      -1.054  -7.923  16.077  0.00  0.00    +0.000 HD
ATOM     10  H   UNL     1      -1.519  -5.581  16.894  0.00  0.00    +0.000 HD
BRANCH   6  11
ATOM     11  O   UNL     1       2.380  -4.173  15.478  0.00  0.00    +0.000 OA
BRANCH  11  12
ATOM     12  C   UNL     1       1.887  -2.906  15.053  0.00  0.00    +0.000 C 
ATOM     13  H   UNL     1       2.070  -2.817  13.980  0.00  0.00    +0.000 HD
ATOM     14  H   UNL     1       2.419  -2.091  15.556  0.00  0.00    +0.000 HD
ATOM     15  H   UNL     1       0.808  -2.829  15.220  0.00  0.00    +0.000 HD
ENDBRANCH  11  12
ENDBRANCH   6  11
ENDBRANCH   1   5
BRANCH   1  16
ATOM     16  C   UNL     1       3.898  -7.602  15.458  0.00  0.00    +0.000 C 
ATOM     17  H   UNL     1       4.623  -8.206  14.901  0.00  0.00    +0.000 HD
ATOM     18  H   UNL     1       4.459  -6.939  16.127  0.00  0.00    +0.000 HD
ATOM     19  H   UNL     1       3.306  -8.282  16.080  0.00  0.00    +0.000 HD
ENDBRANCH   1  16
BRANCH   1  20
ATOM     20  C   UNL     1       2.799  -7.542  13.187  0.00  0.00    +0.000 C 
ATOM     21  H   UNL     1       2.956  -6.866  12.337  0.00  0.00    +0.000 HD
ATOM     22  H   UNL     1       1.762  -7.894  13.121  0.00  0.00    +0.000 HD
BRANCH  20  23
ATOM     23  C   UNL     1       3.719  -8.746  13.038  0.00  0.00    +0.000 C 
ATOM     24  H   UNL     1       4.483  -8.543  12.281  0.00  0.00    +0.000 HD
ATOM     25  H   UNL     1       4.234  -8.979  13.975  0.00  0.00    +0.000 HD
ATOM     26  H   UNL     1       3.158  -9.633  12.723  0.00  0.00    +0.000 HD
ENDBRANCH  20  23
ENDBRANCH   1  20
TORSDOF 6
ENDMDL
MODEL 3
REMARK VINA RESULT:    -3.985     21.189     23.122
REMARK INTER + INTRA:          -5.271
REMARK INTER:                  -5.036
REMARK INTRA:                  -0.236
REMARK UNBOUND:                -0.238
REMARK  Name = 520098
REMARK  6 active torsions:
REMARK  status: ('A' for Active; 'I' for Inactive)
REMARK    1  A    between atoms: O_1  and  C_9
REMARK    2  A    between atoms: O_1  and  C_12
REMARK    3  A    between atoms: C_4  and  C_5
REMARK    4  A    between atoms: C_4  and  C_6
REMARK    5  A    between atoms: C_4  and  C_7
REMARK    6  A    between atoms: C_5  and  C_8
REMARK                            x       y       z     vdW  Elec       q    Type
REMARK                         _______ _______ _______ _____ _____    ______ ____
ROOT
ATOM      1  C   UNL     1     -21.122  -1.496   8.801  0.00  0.00    +0.000 C 
ATOM      2  H   UNL     1     -21.203  -0.945   7.856  0.00  0.00    +0.000 HD
ENDROOT
BRANCH   1   5
ATOM      3  N   UNL     1     -19.399  -2.090  10.389  0.00  0.00    +0.000 NA
ATOM      4  N   UNL     1     -17.413  -1.875   8.420  0.00  0.00    +0.000 NA
ATOM      5  C   UNL     1     -19.661  -1.759   9.123  0.00  0.00    +0.000 A 
ATOM      6  C   UNL     1     -18.715  -1.648   8.150  0.00  0.00    +0.000 A 
ATOM      7  C   UNL     1     -18.098  -2.318  10.659  0.00  0.00    +0.000 A 
ATOM      8  C   UNL     1     -17.123  -2.213   9.692  0.00  0.00    +0.000 A 
ATOM      9  H   UNL     1     -17.864  -2.589  11.681  0.00  0.00    +0.000 HD
ATOM     10  H   UNL     1     -16.078  -2.396   9.910  0.00  0.00    +0.000 HD
BRANCH   6  11
ATOM     11  O   UNL     1     -19.032  -1.303   6.865  0.00  0.00    +0.000 OA
BRANCH  11  12
ATOM     12  C   UNL     1     -18.772  -2.274   5.856  0.00  0.00    +0.000 C 
ATOM     13  H   UNL     1     -17.810  -2.031   5.397  0.00  0.00    +0.000 HD
ATOM     14  H   UNL     1     -19.538  -2.240   5.074  0.00  0.00    +0.000 HD
ATOM     15  H   UNL     1     -18.698  -3.277   6.286  0.00  0.00    +0.000 HD
ENDBRANCH  11  12
ENDBRANCH   6  11
ENDBRANCH   1   5
BRANCH   1  16
ATOM     16  C   UNL     1     -21.870  -2.817   8.583  0.00  0.00    +0.000 C 
ATOM     17  H   UNL     1     -21.298  -3.506   7.951  0.00  0.00    +0.000 HD
ATOM     18  H   UNL     1     -22.060  -3.319   9.538  0.00  0.00    +0.000 HD
ATOM     19  H   UNL     1     -22.837  -2.644   8.098  0.00  0.00    +0.000 HD
ENDBRANCH   1  16
BRANCH   1  20
ATOM     20  C   UNL     1     -21.837  -0.647   9.872  0.00  0.00    +0.000 C 
ATOM     21  H   UNL     1     -22.044   0.361   9.489  0.00  0.00    +0.000 HD
ATOM     22  H   UNL     1     -21.175  -0.525  10.738  0.00  0.00    +0.000 HD
BRANCH  20  23
ATOM     23  C   UNL     1     -23.140  -1.269  10.356  0.00  0.00    +0.000 C 
ATOM     24  H   UNL     1     -23.993  -0.691   9.985  0.00  0.00    +0.000 HD
ATOM     25  H   UNL     1     -23.254  -2.297   9.997  0.00  0.00    +0.000 HD
ATOM     26  H   UNL     1     -23.189  -1.279  11.450  0.00  0.00    +0.000 HD
ENDBRANCH  20  23
ENDBRANCH   1  20
TORSDOF 6
ENDMDL
MODEL 4
REMARK VINA RESULT:    -3.888     24.638     26.289
REMARK INTER + INTRA:          -5.149
REMARK INTER:                  -4.966
REMARK INTRA:                  -0.182
REMARK UNBOUND:                -0.238
REMARK  Name = 520098
REMARK  6 active torsions:
REMARK  status: ('A' for Active; 'I' for Inactive)
REMARK    1  A    between atoms: O_1  and  C_9
REMARK    2  A    between atoms: O_1  and  C_12
REMARK    3  A    between atoms: C_4  and  C_5
REMARK    4  A    between atoms: C_4  and  C_6
REMARK    5  A    between atoms: C_4  and  C_7
REMARK    6  A    between atoms: C_5  and  C_8
REMARK                            x       y       z     vdW  Elec       q    Type
REMARK                         _______ _______ _______ _____ _____    ______ ____
ROOT
ATOM      1  C   UNL     1       6.406  13.116  -0.123  0.00  0.00    +0.000 C 
ATOM      2  H   UNL     1       5.476  13.682  -0.259  0.00  0.00    +0.000 HD
ENDROOT
BRANCH   1   5
ATOM      3  N   UNL     1       8.087  12.036  -1.484  0.00  0.00    +0.000 NA
ATOM      4  N   UNL     1       7.328  13.534  -3.731  0.00  0.00    +0.000 NA
ATOM      5  C   UNL     1       7.103  12.938  -1.460  0.00  0.00    +0.000 A 
ATOM      6  C   UNL     1       6.717  13.677  -2.538  0.00  0.00    +0.000 A 
ATOM      7  C   UNL     1       8.696  11.892  -2.678  0.00  0.00    +0.000 A 
ATOM      8  C   UNL     1       8.324  12.627  -3.781  0.00  0.00    +0.000 A 
ATOM      9  H   UNL     1       9.498  11.164  -2.719  0.00  0.00    +0.000 HD
ATOM     10  H   UNL     1       8.815  12.511  -4.739  0.00  0.00    +0.000 HD
BRANCH   6  11
ATOM     11  O   UNL     1       5.704  14.592  -2.464  0.00  0.00    +0.000 OA
BRANCH  11  12
ATOM     12  C   UNL     1       5.435  15.352  -3.639  0.00  0.00    +0.000 C 
ATOM     13  H   UNL     1       4.670  16.092  -3.392  0.00  0.00    +0.000 HD
ATOM     14  H   UNL     1       5.043  14.713  -4.437  0.00  0.00    +0.000 HD
ATOM     15  H   UNL     1       6.329  15.887  -3.972  0.00  0.00    +0.000 HD
ENDBRANCH  11  12
ENDBRANCH   6  11
ENDBRANCH   1   5
BRANCH   1  16
ATOM     16  C   UNL     1       5.989  11.756   0.450  0.00  0.00    +0.000 C 
ATOM     17  H   UNL     1       6.125  11.715   1.537  0.00  0.00    +0.000 HD
ATOM     18  H   UNL     1       4.934  11.550   0.238  0.00  0.00    +0.000 HD
ATOM     19  H   UNL     1       6.583  10.946   0.010  0.00  0.00    +0.000 HD
ENDBRANCH   1  16
BRANCH   1  20
ATOM     20  C   UNL     1       7.252  13.893   0.905  0.00  0.00    +0.000 C 
ATOM     21  H   UNL     1       7.230  14.969   0.689  0.00  0.00    +0.000 HD
ATOM     22  H   UNL     1       8.299  13.577   0.824  0.00  0.00    +0.000 HD
BRANCH  20  23
ATOM     23  C   UNL     1       6.800  13.670   2.343  0.00  0.00    +0.000 C 
ATOM     24  H   UNL     1       5.998  12.926   2.373  0.00  0.00    +0.000 HD
ATOM     25  H   UNL     1       7.618  13.301   2.969  0.00  0.00    +0.000 HD
ATOM     26  H   UNL     1       6.419  14.597   2.783  0.00  0.00    +0.000 HD
ENDBRANCH  20  23
ENDBRANCH   1  20
TORSDOF 6
ENDMDL
MODEL 5
REMARK VINA RESULT:    -3.818     22.042     22.971
REMARK INTER + INTRA:          -5.061
REMARK INTER:                  -4.849
REMARK INTRA:                  -0.212
REMARK UNBOUND:                -0.238
REMARK  Name = 520098
REMARK  6 active torsions:
REMARK  status: ('A' for Active; 'I' for Inactive)
REMARK    1  A    between atoms: O_1  and  C_9
REMARK    2  A    between atoms: O_1  and  C_12
REMARK    3  A    between atoms: C_4  and  C_5
REMARK    4  A    between atoms: C_4  and  C_6
REMARK    5  A    between atoms: C_4  and  C_7
REMARK    6  A    between atoms: C_5  and  C_8
REMARK                            x       y       z     vdW  Elec       q    Type
REMARK                         _______ _______ _______ _____ _____    ______ ____
ROOT
ATOM      1  C   UNL     1       5.722  12.281   2.489  0.00  0.00    +0.000 C 
ATOM      2  H   UNL     1       6.115  11.641   3.289  0.00  0.00    +0.000 HD
ENDROOT
BRANCH   1   5
ATOM      3  N   UNL     1       3.504  12.967   1.814  0.00  0.00    +0.000 NA
ATOM      4  N   UNL     1       2.741  13.366   4.484  0.00  0.00    +0.000 NA
ATOM      5  C   UNL     1       4.324  12.755   2.846  0.00  0.00    +0.000 A 
ATOM      6  C   UNL     1       3.977  12.943   4.150  0.00  0.00    +0.000 A 
ATOM      7  C   UNL     1       2.268  13.389   2.148  0.00  0.00    +0.000 A 
ATOM      8  C   UNL     1       1.893  13.586   3.459  0.00  0.00    +0.000 A 
ATOM      9  H   UNL     1       1.587  13.566   1.325  0.00  0.00    +0.000 HD
ATOM     10  H   UNL     1       0.901  13.925   3.726  0.00  0.00    +0.000 HD
BRANCH   6  11
ATOM     11  O   UNL     1       4.854  12.715   5.174  0.00  0.00    +0.000 OA
BRANCH  11  12
ATOM     12  C   UNL     1       4.866  13.665   6.235  0.00  0.00    +0.000 C 
ATOM     13  H   UNL     1       5.155  13.142   7.150  0.00  0.00    +0.000 HD
ATOM     14  H   UNL     1       3.869  14.092   6.390  0.00  0.00    +0.000 HD
ATOM     15  H   UNL     1       5.603  14.452   6.048  0.00  0.00    +0.000 HD
ENDBRANCH  11  12
ENDBRANCH   6  11
ENDBRANCH   1   5
BRANCH   1  16
ATOM     16  C   UNL     1       5.687  11.406   1.230  0.00  0.00    +0.000 C 
ATOM     17  H   UNL     1       6.455  10.625   1.258  0.00  0.00    +0.000 HD
ATOM     18  H   UNL     1       4.713  10.914   1.125  0.00  0.00    +0.000 HD
ATOM     19  H   UNL     1       5.855  12.007   0.330  0.00  0.00    +0.000 HD
ENDBRANCH   1  16
BRANCH   1  20
ATOM     20  C   UNL     1       6.729  13.435   2.310  0.00  0.00    +0.000 C 
ATOM     21  H   UNL     1       7.649  13.235   2.872  0.00  0.00    +0.000 HD
ATOM     22  H   UNL     1       6.300  14.356   2.725  0.00  0.00    +0.000 HD
BRANCH  20  23
ATOM     23  C   UNL     1       7.087  13.695   0.852  0.00  0.00    +0.000 C 
ATOM     24  H   UNL     1       6.959  14.756   0.618  0.00  0.00    +0.000 HD
ATOM     25  H   UNL     1       8.128  13.431   0.640  0.00  0.00    +0.000 HD
ATOM     26  H   UNL     1       6.441  13.120   0.180  0.00  0.00    +0.000 HD
ENDBRANCH  20  23
ENDBRANCH   1  20
TORSDOF 6
ENDMDL
MODEL 6
REMARK VINA RESULT:    -3.805     22.245     23.869
REMARK INTER + INTRA:          -5.044
REMARK INTER:                  -4.852
REMARK INTRA:                  -0.192
REMARK UNBOUND:                -0.238
REMARK  Name = 520098
REMARK  6 active torsions:
REMARK  status: ('A' for Active; 'I' for Inactive)
REMARK    1  A    between atoms: O_1  and  C_9
REMARK    2  A    between atoms: O_1  and  C_12
REMARK    3  A    between atoms: C_4  and  C_5
REMARK    4  A    between atoms: C_4  and  C_6
REMARK    5  A    between atoms: C_4  and  C_7
REMARK    6  A    between atoms: C_5  and  C_8
REMARK                            x       y       z     vdW  Elec       q    Type
REMARK                         _______ _______ _______ _____ _____    ______ ____
ROOT
ATOM      1  C   UNL     1     -21.194  -1.999   9.293  0.00  0.00    +0.000 C 
ATOM      2  H   UNL     1     -22.069  -2.499   8.858  0.00  0.00    +0.000 HD
ENDROOT
BRANCH   1   5
ATOM      3  N   UNL     1     -18.957  -1.327   8.673  0.00  0.00    +0.000 NA
ATOM      4  N   UNL     1     -19.363  -2.168   6.028  0.00  0.00    +0.000 NA
ATOM      5  C   UNL     1     -20.101  -1.866   8.247  0.00  0.00    +0.000 A 
ATOM      6  C   UNL     1     -20.322  -2.281   6.969  0.00  0.00    +0.000 A 
ATOM      7  C   UNL     1     -17.997  -1.215   7.732  0.00  0.00    +0.000 A 
ATOM      8  C   UNL     1     -18.197  -1.628   6.433  0.00  0.00    +0.000 A 
ATOM      9  H   UNL     1     -17.060  -0.780   8.057  0.00  0.00    +0.000 HD
ATOM     10  H   UNL     1     -17.426  -1.536   5.679  0.00  0.00    +0.000 HD
BRANCH   6  11
ATOM     11  O   UNL     1     -21.514  -2.827   6.579  0.00  0.00    +0.000 OA
BRANCH  11  12
ATOM     12  C   UNL     1     -21.501  -4.202   6.207  0.00  0.00    +0.000 C 
ATOM     13  H   UNL     1     -20.561  -4.635   6.556  0.00  0.00    +0.000 HD
ATOM     14  H   UNL     1     -21.542  -4.312   5.118  0.00  0.00    +0.000 HD
ATOM     15  H   UNL     1     -22.322  -4.745   6.685  0.00  0.00    +0.000 HD
ENDBRANCH  11  12
ENDBRANCH   6  11
ENDBRANCH   1   5
BRANCH   1  16
ATOM     16  C   UNL     1     -20.728  -2.896  10.446  0.00  0.00    +0.000 C 
ATOM     17  H   UNL     1     -21.350  -3.795  10.537  0.00  0.00    +0.000 HD
ATOM     18  H   UNL     1     -19.693  -3.220  10.293  0.00  0.00    +0.000 HD
ATOM     19  H   UNL     1     -20.774  -2.362  11.402  0.00  0.00    +0.000 HD
ENDBRANCH   1  16
BRANCH   1  20
ATOM     20  C   UNL     1     -21.684  -0.641   9.836  0.00  0.00    +0.000 C 
ATOM     21  H   UNL     1     -22.227  -0.089   9.058  0.00  0.00    +0.000 HD
ATOM     22  H   UNL     1     -20.817  -0.028  10.111  0.00  0.00    +0.000 HD
BRANCH  20  23
ATOM     23  C   UNL     1     -22.578  -0.775  11.062  0.00  0.00    +0.000 C 
ATOM     24  H   UNL     1     -21.974  -1.016  11.942  0.00  0.00    +0.000 HD
ATOM     25  H   UNL     1     -23.115   0.155  11.272  0.00  0.00    +0.000 HD
ATOM     26  H   UNL     1     -23.313  -1.575  10.927  0.00  0.00    +0.000 HD
ENDBRANCH  20  23
ENDBRANCH   1  20
TORSDOF 6
ENDMDL
MODEL 7
REMARK VINA RESULT:    -3.793     25.437     27.074
REMARK INTER + INTRA:          -5.028
REMARK INTER:                  -4.811
REMARK INTRA:                  -0.218
REMARK UNBOUND:                -0.238
REMARK  Name = 520098
REMARK  6 active torsions:
REMARK  status: ('A' for Active; 'I' for Inactive)
REMARK    1  A    between atoms: O_1  and  C_9
REMARK    2  A    between atoms: O_1  and  C_12
REMARK    3  A    between atoms: C_4  and  C_5
REMARK    4  A    between atoms: C_4  and  C_6
REMARK    5  A    between atoms: C_4  and  C_7
REMARK    6  A    between atoms: C_5  and  C_8
REMARK                            x       y       z     vdW  Elec       q    Type
REMARK                         _______ _______ _______ _____ _____    ______ ____
ROOT
ATOM      1  C   UNL     1       7.511  12.937  -1.114  0.00  0.00    +0.000 C 
ATOM      2  H   UNL     1       8.225  12.121  -1.281  0.00  0.00    +0.000 HD
ENDROOT
BRANCH   1   5
ATOM      3  N   UNL     1       6.109  14.445  -2.381  0.00  0.00    +0.000 NA
ATOM      4  N   UNL     1       7.196  13.534  -4.801  0.00  0.00    +0.000 NA
ATOM      5  C   UNL     1       7.052  13.503  -2.447  0.00  0.00    +0.000 A 
ATOM      6  C   UNL     1       7.594  13.044  -3.609  0.00  0.00    +0.000 A 
ATOM      7  C   UNL     1       5.711  14.935  -3.572  0.00  0.00    +0.000 A 
ATOM      8  C   UNL     1       6.245  14.488  -4.761  0.00  0.00    +0.000 A 
ATOM      9  H   UNL     1       4.946  15.701  -3.541  0.00  0.00    +0.000 HD
ATOM     10  H   UNL     1       5.925  14.882  -5.717  0.00  0.00    +0.000 HD
BRANCH   6  11
ATOM     11  O   UNL     1       8.558  12.075  -3.627  0.00  0.00    +0.000 OA
BRANCH  11  12
ATOM     12  C   UNL     1       9.864  12.472  -4.037  0.00  0.00    +0.000 C 
ATOM     13  H   UNL     1       9.928  13.559  -3.943  0.00  0.00    +0.000 HD
ATOM     14  H   UNL     1      10.041  12.211  -5.085  0.00  0.00    +0.000 HD
ATOM     15  H   UNL     1      10.629  12.031  -3.390  0.00  0.00    +0.000 HD
ENDBRANCH  11  12
ENDBRANCH   6  11
ENDBRANCH   1   5
BRANCH   1  16
ATOM     16  C   UNL     1       8.268  14.001  -0.311  0.00  0.00    +0.000 C 
ATOM     17  H   UNL     1       8.170  14.995  -0.764  0.00  0.00    +0.000 HD
ATOM     18  H   UNL     1       7.884  14.062   0.713  0.00  0.00    +0.000 HD
ATOM     19  H   UNL     1       9.336  13.764  -0.255  0.00  0.00    +0.000 HD
ENDBRANCH   1  16
BRANCH   1  20
ATOM     20  C   UNL     1       6.358  12.351  -0.274  0.00  0.00    +0.000 C 
ATOM     21  H   UNL     1       6.337  11.257  -0.358  0.00  0.00    +0.000 HD
ATOM     22  H   UNL     1       5.402  12.717  -0.668  0.00  0.00    +0.000 HD
BRANCH  20  23
ATOM     23  C   UNL     1       6.440  12.732   1.199  0.00  0.00    +0.000 C 
ATOM     24  H   UNL     1       5.956  13.700   1.364  0.00  0.00    +0.000 HD
ATOM     25  H   UNL     1       5.936  11.996   1.834  0.00  0.00    +0.000 HD
ATOM     26  H   UNL     1       7.482  12.814   1.527  0.00  0.00    +0.000 HD
ENDBRANCH  20  23
ENDBRANCH   1  20
TORSDOF 6
ENDMDL
MODEL 8
REMARK VINA RESULT:    -3.792     24.691     25.747
REMARK INTER + INTRA:          -5.027
REMARK INTER:                  -4.799
REMARK INTRA:                  -0.227
REMARK UNBOUND:                -0.238
REMARK  Name = 520098
REMARK  6 active torsions:
REMARK  status: ('A' for Active; 'I' for Inactive)
REMARK    1  A    between atoms: O_1  and  C_9
REMARK    2  A    between atoms: O_1  and  C_12
REMARK    3  A    between atoms: C_4  and  C_5
REMARK    4  A    between atoms: C_4  and  C_6
REMARK    5  A    between atoms: C_4  and  C_7
REMARK    6  A    between atoms: C_5  and  C_8
REMARK                            x       y       z     vdW  Elec       q    Type
REMARK                         _______ _______ _______ _____ _____    ______ ____
ROOT
ATOM      1  C   UNL     1      -6.046  -6.212  -9.112  0.00  0.00    +0.000 C 
ATOM      2  H   UNL     1      -5.433  -5.345  -9.392  0.00  0.00    +0.000 HD
ENDROOT
BRANCH   1   5
ATOM      3  N   UNL     1      -5.666  -8.384  -8.121  0.00  0.00    +0.000 NA
ATOM      4  N   UNL     1      -3.126  -8.554  -9.299  0.00  0.00    +0.000 NA
ATOM      5  C   UNL     1      -5.158  -7.425  -8.899  0.00  0.00    +0.000 A 
ATOM      6  C   UNL     1      -3.928  -7.485  -9.481  0.00  0.00    +0.000 A 
ATOM      7  C   UNL     1      -4.865  -9.453  -7.941  0.00  0.00    +0.000 A 
ATOM      8  C   UNL     1      -3.617  -9.536  -8.519  0.00  0.00    +0.000 A 
ATOM      9  H   UNL     1      -5.259 -10.243  -7.313  0.00  0.00    +0.000 HD
ATOM     10  H   UNL     1      -2.975 -10.395  -8.372  0.00  0.00    +0.000 HD
BRANCH   6  11
ATOM     11  O   UNL     1      -3.449  -6.475 -10.269  0.00  0.00    +0.000 OA
BRANCH  11  12
ATOM     12  C   UNL     1      -3.421  -6.713 -11.673  0.00  0.00    +0.000 C 
ATOM     13  H   UNL     1      -3.562  -7.785 -11.835  0.00  0.00    +0.000 HD
ATOM     14  H   UNL     1      -2.451  -6.432 -12.098  0.00  0.00    +0.000 HD
ATOM     15  H   UNL     1      -4.236  -6.184 -12.177  0.00  0.00    +0.000 HD
ENDBRANCH  11  12
ENDBRANCH   6  11
ENDBRANCH   1   5
BRANCH   1  16
ATOM     16  C   UNL     1      -7.003  -6.447 -10.286  0.00  0.00    +0.000 C 
ATOM     17  H   UNL     1      -6.798  -5.765 -11.120  0.00  0.00    +0.000 HD
ATOM     18  H   UNL     1      -6.912  -7.472 -10.664  0.00  0.00    +0.000 HD
ATOM     19  H   UNL     1      -8.044  -6.295  -9.980  0.00  0.00    +0.000 HD
ENDBRANCH   1  16
BRANCH   1  20
ATOM     20  C   UNL     1      -6.835  -5.807  -7.851  0.00  0.00    +0.000 C 
ATOM     21  H   UNL     1      -6.324  -4.994  -7.320  0.00  0.00    +0.000 HD
ATOM     22  H   UNL     1      -6.873  -6.659  -7.160  0.00  0.00    +0.000 HD
BRANCH  20  23
ATOM     23  C   UNL     1      -8.265  -5.378  -8.153  0.00  0.00    +0.000 C 
ATOM     24  H   UNL     1      -8.320  -4.288  -8.239  0.00  0.00    +0.000 HD
ATOM     25  H   UNL     1      -8.623  -5.804  -9.095  0.00  0.00    +0.000 HD
ATOM     26  H   UNL     1      -8.946  -5.689  -7.353  0.00  0.00    +0.000 HD
ENDBRANCH  20  23
ENDBRANCH   1  20
TORSDOF 6
ENDMDL
MODEL 9
REMARK VINA RESULT:    -3.636     24.309     25.788
REMARK INTER + INTRA:          -4.831
REMARK INTER:                  -4.593
REMARK INTRA:                  -0.238
REMARK UNBOUND:                -0.238
REMARK  Name = 520098
REMARK  6 active torsions:
REMARK  status: ('A' for Active; 'I' for Inactive)
REMARK    1  A    between atoms: O_1  and  C_9
REMARK    2  A    between atoms: O_1  and  C_12
REMARK    3  A    between atoms: C_4  and  C_5
REMARK    4  A    between atoms: C_4  and  C_6
REMARK    5  A    between atoms: C_4  and  C_7
REMARK    6  A    between atoms: C_5  and  C_8
REMARK                            x       y       z     vdW  Elec       q    Type
REMARK                         _______ _______ _______ _____ _____    ______ ____
ROOT
ATOM      1  C   UNL     1      -4.297  -7.187  -9.214  0.00  0.00    +0.000 C 
ATOM      2  H   UNL     1      -4.096  -7.144  -8.136  0.00  0.00    +0.000 HD
ENDROOT
BRANCH   1   5
ATOM      3  N   UNL     1      -4.400  -8.814 -11.000  0.00  0.00    +0.000 NA
ATOM      4  N   UNL     1      -4.248 -10.935  -9.170  0.00  0.00    +0.000 NA
ATOM      5  C   UNL     1      -4.310  -8.633  -9.680  0.00  0.00    +0.000 A 
ATOM      6  C   UNL     1      -4.235  -9.646  -8.773  0.00  0.00    +0.000 A 
ATOM      7  C   UNL     1      -4.412 -10.102 -11.397  0.00  0.00    +0.000 A 
ATOM      8  C   UNL     1      -4.338 -11.144 -10.498  0.00  0.00    +0.000 A 
ATOM      9  H   UNL     1      -4.485 -10.271 -12.464  0.00  0.00    +0.000 HD
ATOM     10  H   UNL     1      -4.348 -12.178 -10.819  0.00  0.00    +0.000 HD
BRANCH   6  11
ATOM     11  O   UNL     1      -4.145  -9.411  -7.429  0.00  0.00    +0.000 OA
BRANCH  11  12
ATOM     12  C   UNL     1      -5.260  -9.800  -6.631  0.00  0.00    +0.000 C 
ATOM     13  H   UNL     1      -6.036  -9.039  -6.745  0.00  0.00    +0.000 HD
ATOM     14  H   UNL     1      -4.985  -9.847  -5.572  0.00  0.00    +0.000 HD
ATOM     15  H   UNL     1      -5.670 -10.755  -6.971  0.00  0.00    +0.000 HD
ENDBRANCH  11  12
ENDBRANCH   6  11
ENDBRANCH   1   5
BRANCH   1  16
ATOM     16  C   UNL     1      -3.154  -6.417  -9.886  0.00  0.00    +0.000 C 
ATOM     17  H   UNL     1      -2.888  -5.515  -9.323  0.00  0.00    +0.000 HD
ATOM     18  H   UNL     1      -2.257  -7.040  -9.962  0.00  0.00    +0.000 HD
ATOM     19  H   UNL     1      -3.433  -6.106 -10.899  0.00  0.00    +0.000 HD
ENDBRANCH   1  16
BRANCH   1  20
ATOM     20  C   UNL     1      -5.639  -6.463  -9.444  0.00  0.00    +0.000 C 
ATOM     21  H   UNL     1      -6.329  -7.101 -10.011  0.00  0.00    +0.000 HD
ATOM     22  H   UNL     1      -5.466  -5.567 -10.052  0.00  0.00    +0.000 HD
BRANCH  20  23
ATOM     23  C   UNL     1      -6.315  -6.032  -8.148  0.00  0.00    +0.000 C 
ATOM     24  H   UNL     1      -6.255  -4.945  -8.037  0.00  0.00    +0.000 HD
ATOM     25  H   UNL     1      -7.374  -6.309  -8.136  0.00  0.00    +0.000 HD
ATOM     26  H   UNL     1      -5.828  -6.489  -7.280  0.00  0.00    +0.000 HD
ENDBRANCH  20  23
ENDBRANCH   1  20
TORSDOF 6
ENDMDL
MODEL 10
REMARK VINA RESULT:    -3.625     16.782     17.536
REMARK INTER + INTRA:          -4.817
REMARK INTER:                  -4.616
REMARK INTRA:                  -0.201
REMARK UNBOUND:                -0.238
REMARK  Name = 520098
REMARK  6 active torsions:
REMARK  status: ('A' for Active; 'I' for Inactive)
REMARK    1  A    between atoms: O_1  and  C_9
REMARK    2  A    between atoms: O_1  and  C_12
REMARK    3  A    between atoms: C_4  and  C_5
REMARK    4  A    between atoms: C_4  and  C_6
REMARK    5  A    between atoms: C_4  and  C_7
REMARK    6  A    between atoms: C_5  and  C_8
REMARK                            x       y       z     vdW  Elec       q    Type
REMARK                         _______ _______ _______ _____ _____    ______ ____
ROOT
ATOM      1  C   UNL     1      -0.152  10.847  11.604  0.00  0.00    +0.000 C 
ATOM      2  H   UNL     1      -0.530  10.455  10.652  0.00  0.00    +0.000 HD
ENDROOT
BRANCH   1   5
ATOM      3  N   UNL     1      -0.685  10.609  13.950  0.00  0.00    +0.000 NA
ATOM      4  N   UNL     1      -3.389  10.151  13.360  0.00  0.00    +0.000 NA
ATOM      5  C   UNL     1      -1.168  10.598  12.705  0.00  0.00    +0.000 A 
ATOM      6  C   UNL     1      -2.476  10.377  12.395  0.00  0.00    +0.000 A 
ATOM      7  C   UNL     1      -1.599  10.384  14.916  0.00  0.00    +0.000 A 
ATOM      8  C   UNL     1      -2.927  10.159  14.626  0.00  0.00    +0.000 A 
ATOM      9  H   UNL     1      -1.228  10.390  15.933  0.00  0.00    +0.000 HD
ATOM     10  H   UNL     1      -3.659   9.978  15.402  0.00  0.00    +0.000 HD
BRANCH   6  11
ATOM     11  O   UNL     1      -2.923  10.373  11.102  0.00  0.00    +0.000 OA
BRANCH  11  12
ATOM     12  C   UNL     1      -3.564  11.557  10.639  0.00  0.00    +0.000 C 
ATOM     13  H   UNL     1      -3.225  12.388  11.264  0.00  0.00    +0.000 HD
ATOM     14  H   UNL     1      -4.652  11.479  10.742  0.00  0.00    +0.000 HD
ATOM     15  H   UNL     1      -3.285  11.776   9.604  0.00  0.00    +0.000 HD
ENDBRANCH  11  12
ENDBRANCH   6  11
ENDBRANCH   1   5
BRANCH   1  16
ATOM     16  C   UNL     1       0.047  12.353  11.389  0.00  0.00    +0.000 C 
ATOM     17  H   UNL     1      -0.906  12.894  11.407  0.00  0.00    +0.000 HD
ATOM     18  H   UNL     1       0.686  12.776  12.173  0.00  0.00    +0.000 HD
ATOM     19  H   UNL     1       0.526  12.551  10.424  0.00  0.00    +0.000 HD
ENDBRANCH   1  16
BRANCH   1  20
ATOM     20  C   UNL     1       1.203  10.159  11.860  0.00  0.00    +0.000 C 
ATOM     21  H   UNL     1       1.236   9.178  11.369  0.00  0.00    +0.000 HD
ATOM     22  H   UNL     1       1.319   9.977  12.936  0.00  0.00    +0.000 HD
BRANCH  20  23
ATOM     23  C   UNL     1       2.393  10.987  11.390  0.00  0.00    +0.000 C 
ATOM     24  H   UNL     1       2.164  12.054  11.475  0.00  0.00    +0.000 HD
ATOM     25  H   UNL     1       3.285  10.789  11.992  0.00  0.00    +0.000 HD
ATOM     26  H   UNL     1       2.630  10.774  10.342  0.00  0.00    +0.000 HD
ENDBRANCH  20  23
ENDBRANCH   1  20
TORSDOF 6
ENDMDL
