MODEL 1
REMARK VINA RESULT:    -3.812      0.000      0.000
REMARK INTER + INTRA:          -4.383
REMARK INTER:                  -4.373
REMARK INTRA:                  -0.011
REMARK UNBOUND:                -0.014
REMARK  Name = 11173
REMARK  4 active torsions:
REMARK  status: ('A' for Active; 'I' for Inactive)
REMARK    1  A    between atoms: O_1  and  C_6
REMARK    2  A    between atoms: C_2  and  C_4
REMARK    3  A    between atoms: C_2  and  C_5
REMARK    4  A    between atoms: C_3  and  C_6
REMARK                            x       y       z     vdW  Elec       q    Type
REMARK                         _______ _______ _______ _____ _____    ______ ____
ROOT
ATOM      1  C   UNL     1       0.964  -5.021  15.417  0.00  0.00    +0.000 C 
ATOM      2  C   UNL     1       1.238  -3.707  15.536  0.00  0.00    +0.000 C 
ATOM      3  H   UNL     1       0.671  -3.132  16.266  0.00  0.00    +0.000 HD
ENDROOT
BRANCH   1   4
ATOM      4  C   UNL     1      -0.093  -5.656  16.283  0.00  0.00    +0.000 C 
ATOM      5  H   UNL     1       0.365  -6.364  16.982  0.00  0.00    +0.000 HD
ATOM      6  H   UNL     1      -0.620  -4.889  16.860  0.00  0.00    +0.000 HD
ATOM      7  H   UNL     1      -0.840  -6.203  15.699  0.00  0.00    +0.000 HD
ENDBRANCH   1   4
BRANCH   1   8
ATOM      8  C   UNL     1       1.635  -5.970  14.467  0.00  0.00    +0.000 C 
ATOM      9  H   UNL     1       2.595  -5.556  14.139  0.00  0.00    +0.000 HD
ATOM     10  H   UNL     1       1.836  -6.954  14.894  0.00  0.00    +0.000 HD
ATOM     11  H   UNL     1       1.007  -6.121  13.582  0.00  0.00    +0.000 HD
ENDBRANCH   1   8
BRANCH   2  12
ATOM     12  C   UNL     1       2.239  -2.900  14.769  0.00  0.00    +0.000 C 
ATOM     13  H   UNL     1       2.613  -3.494  13.929  0.00  0.00    +0.000 HD
ATOM     14  H   UNL     1       3.093  -2.578  15.366  0.00  0.00    +0.000 HD
BRANCH  12  15
ATOM     15  O   UNL     1       1.608  -1.737  14.245  0.00  0.00    +0.000 OA
ATOM     16  H   UNL     1       1.995  -0.971  14.703  0.00  0.00    +0.000 HD
ENDBRANCH  12  15
ENDBRANCH   2  12
TORSDOF 4
ENDMDL
MODEL 2
REMARK VINA RESULT:    -3.777     15.084     15.873
REMARK INTER + INTRA:          -4.343
REMARK INTER:                  -4.332
REMARK INTRA:                  -0.011
REMARK UNBOUND:                -0.014
REMARK  Name = 11173
REMARK  4 active torsions:
REMARK  status: ('A' for Active; 'I' for Inactive)
REMARK    1  A    between atoms: O_1  and  C_6
REMARK    2  A    between atoms: C_2  and  C_4
REMARK    3  A    between atoms: C_2  and  C_5
REMARK    4  A    between atoms: C_3  and  C_6
REMARK                            x       y       z     vdW  Elec       q    Type
REMARK                         _______ _______ _______ _____ _____    ______ ____
ROOT
ATOM      1  C   UNL     1       4.353  -2.928  -0.999  0.00  0.00    +0.000 C 
ATOM      2  C   UNL     1       4.924  -3.485   0.087  0.00  0.00    +0.000 C 
ATOM      3  H   UNL     1       5.889  -3.974  -0.040  0.00  0.00    +0.000 HD
ENDROOT
BRANCH   1   4
ATOM      4  C   UNL     1       5.046  -2.984  -2.334  0.00  0.00    +0.000 C 
ATOM      5  H   UNL     1       6.126  -3.107  -2.196  0.00  0.00    +0.000 HD
ATOM      6  H   UNL     1       4.673  -3.832  -2.919  0.00  0.00    +0.000 HD
ATOM      7  H   UNL     1       4.889  -2.078  -2.928  0.00  0.00    +0.000 HD
ENDBRANCH   1   4
BRANCH   1   8
ATOM      8  C   UNL     1       3.030  -2.218  -1.020  0.00  0.00    +0.000 C 
ATOM      9  H   UNL     1       2.371  -2.629  -0.247  0.00  0.00    +0.000 HD
ATOM     10  H   UNL     1       3.103  -1.143  -0.846  0.00  0.00    +0.000 HD
ATOM     11  H   UNL     1       2.546  -2.357  -1.993  0.00  0.00    +0.000 HD
ENDBRANCH   1   8
BRANCH   2  12
ATOM     12  C   UNL     1       4.394  -3.537   1.485  0.00  0.00    +0.000 C 
ATOM     13  H   UNL     1       4.181  -4.577   1.751  0.00  0.00    +0.000 HD
ATOM     14  H   UNL     1       3.484  -2.954   1.632  0.00  0.00    +0.000 HD
BRANCH  12  15
ATOM     15  O   UNL     1       5.381  -3.042   2.384  0.00  0.00    +0.000 OA
ATOM     16  H   UNL     1       5.948  -2.435   1.879  0.00  0.00    +0.000 HD
ENDBRANCH  12  15
ENDBRANCH   2  12
TORSDOF 4
ENDMDL
MODEL 3
REMARK VINA RESULT:    -3.699     14.929     15.872
REMARK INTER + INTRA:          -4.254
REMARK INTER:                  -4.216
REMARK INTRA:                  -0.038
REMARK UNBOUND:                -0.014
REMARK  Name = 11173
REMARK  4 active torsions:
REMARK  status: ('A' for Active; 'I' for Inactive)
REMARK    1  A    between atoms: O_1  and  C_6
REMARK    2  A    between atoms: C_2  and  C_4
REMARK    3  A    between atoms: C_2  and  C_5
REMARK    4  A    between atoms: C_3  and  C_6
REMARK                            x       y       z     vdW  Elec       q    Type
REMARK                         _______ _______ _______ _____ _____    ______ ____
ROOT
ATOM      1  C   UNL     1       3.215 -11.755   1.626  0.00  0.00    +0.000 C 
ATOM      2  C   UNL     1       4.451 -12.072   1.192  0.00  0.00    +0.000 C 
ATOM      3  H   UNL     1       4.779 -11.654   0.241  0.00  0.00    +0.000 HD
ENDROOT
BRANCH   1   4
ATOM      4  C   UNL     1       2.335 -10.845   0.811  0.00  0.00    +0.000 C 
ATOM      5  H   UNL     1       1.419 -10.608   1.363  0.00  0.00    +0.000 HD
ATOM      6  H   UNL     1       2.860  -9.908   0.591  0.00  0.00    +0.000 HD
ATOM      7  H   UNL     1       2.041 -11.291  -0.144  0.00  0.00    +0.000 HD
ENDBRANCH   1   4
BRANCH   1   8
ATOM      8  C   UNL     1       2.590 -12.236   2.904  0.00  0.00    +0.000 C 
ATOM      9  H   UNL     1       3.370 -12.499   3.627  0.00  0.00    +0.000 HD
ATOM     10  H   UNL     1       1.941 -11.501   3.382  0.00  0.00    +0.000 HD
ATOM     11  H   UNL     1       1.985 -13.128   2.712  0.00  0.00    +0.000 HD
ENDBRANCH   1   8
BRANCH   2  12
ATOM     12  C   UNL     1       5.463 -12.956   1.851  0.00  0.00    +0.000 C 
ATOM     13  H   UNL     1       6.187 -13.293   1.103  0.00  0.00    +0.000 HD
ATOM     14  H   UNL     1       5.032 -13.837   2.328  0.00  0.00    +0.000 HD
BRANCH  12  15
ATOM     15  O   UNL     1       6.162 -12.216   2.845  0.00  0.00    +0.000 OA
ATOM     16  H   UNL     1       6.746 -12.842   3.308  0.00  0.00    +0.000 HD
ENDBRANCH  12  15
ENDBRANCH   2  12
TORSDOF 4
ENDMDL
MODEL 4
REMARK VINA RESULT:    -3.526      2.136      3.218
REMARK INTER + INTRA:          -4.056
REMARK INTER:                  -4.020
REMARK INTRA:                  -0.036
REMARK UNBOUND:                -0.014
REMARK  Name = 11173
REMARK  4 active torsions:
REMARK  status: ('A' for Active; 'I' for Inactive)
REMARK    1  A    between atoms: O_1  and  C_6
REMARK    2  A    between atoms: C_2  and  C_4
REMARK    3  A    between atoms: C_2  and  C_5
REMARK    4  A    between atoms: C_3  and  C_6
REMARK                            x       y       z     vdW  Elec       q    Type
REMARK                         _______ _______ _______ _____ _____    ______ ____
ROOT
ATOM      1  C   UNL     1       2.819  -3.758  15.193  0.00  0.00    +0.000 C 
ATOM      2  C   UNL     1       1.498  -3.728  15.456  0.00  0.00    +0.000 C 
ATOM      3  H   UNL     1       0.971  -2.786  15.309  0.00  0.00    +0.000 HD
ENDROOT
BRANCH   1   4
ATOM      4  C   UNL     1       3.524  -2.520  14.705  0.00  0.00    +0.000 C 
ATOM      5  H   UNL     1       4.463  -2.378  15.251  0.00  0.00    +0.000 HD
ATOM      6  H   UNL     1       3.753  -2.611  13.638  0.00  0.00    +0.000 HD
ATOM      7  H   UNL     1       2.923  -1.615  14.839  0.00  0.00    +0.000 HD
ENDBRANCH   1   4
BRANCH   1   8
ATOM      8  C   UNL     1       3.711  -4.958  15.340  0.00  0.00    +0.000 C 
ATOM      9  H   UNL     1       4.316  -5.088  14.437  0.00  0.00    +0.000 HD
ATOM     10  H   UNL     1       4.399  -4.896  16.185  0.00  0.00    +0.000 HD
ATOM     11  H   UNL     1       3.104  -5.860  15.480  0.00  0.00    +0.000 HD
ENDBRANCH   1   8
BRANCH   2  12
ATOM     12  C   UNL     1       0.629  -4.842  15.949  0.00  0.00    +0.000 C 
ATOM     13  H   UNL     1      -0.290  -4.422  16.371  0.00  0.00    +0.000 HD
ATOM     14  H   UNL     1       1.100  -5.463  16.711  0.00  0.00    +0.000 HD
BRANCH  12  15
ATOM     15  O   UNL     1       0.272  -5.683  14.857  0.00  0.00    +0.000 OA
ATOM     16  H   UNL     1       0.594  -6.576  15.069  0.00  0.00    +0.000 HD
ENDBRANCH  12  15
ENDBRANCH   2  12
TORSDOF 4
ENDMDL
MODEL 5
REMARK VINA RESULT:    -3.508     15.877     16.554
REMARK INTER + INTRA:          -4.035
REMARK INTER:                  -4.029
REMARK INTRA:                  -0.006
REMARK UNBOUND:                -0.014
REMARK  Name = 11173
REMARK  4 active torsions:
REMARK  status: ('A' for Active; 'I' for Inactive)
REMARK    1  A    between atoms: O_1  and  C_6
REMARK    2  A    between atoms: C_2  and  C_4
REMARK    3  A    between atoms: C_2  and  C_5
REMARK    4  A    between atoms: C_3  and  C_6
REMARK                            x       y       z     vdW  Elec       q    Type
REMARK                         _______ _______ _______ _____ _____    ______ ____
ROOT
ATOM      1  C   UNL     1       4.825  -2.888  -1.201  0.00  0.00    +0.000 C 
ATOM      2  C   UNL     1       5.589  -3.036  -0.101  0.00  0.00    +0.000 C 
ATOM      3  H   UNL     1       5.145  -2.794   0.864  0.00  0.00    +0.000 HD
ENDROOT
BRANCH   1   4
ATOM      4  C   UNL     1       3.402  -2.411  -1.078  0.00  0.00    +0.000 C 
ATOM      5  H   UNL     1       2.707  -3.228  -1.296  0.00  0.00    +0.000 HD
ATOM      6  H   UNL     1       3.210  -2.053  -0.060  0.00  0.00    +0.000 HD
ATOM      7  H   UNL     1       3.175  -1.590  -1.765  0.00  0.00    +0.000 HD
ENDBRANCH   1   4
BRANCH   1   8
ATOM      8  C   UNL     1       5.263  -3.166  -2.610  0.00  0.00    +0.000 C 
ATOM      9  H   UNL     1       4.461  -3.673  -3.158  0.00  0.00    +0.000 HD
ATOM     10  H   UNL     1       5.525  -2.271  -3.175  0.00  0.00    +0.000 HD
ATOM     11  H   UNL     1       6.142  -3.819  -2.607  0.00  0.00    +0.000 HD
ENDBRANCH   1   8
BRANCH   2  12
ATOM     12  C   UNL     1       7.013  -3.488  -0.019  0.00  0.00    +0.000 C 
ATOM     13  H   UNL     1       7.673  -2.621  -0.118  0.00  0.00    +0.000 HD
ATOM     14  H   UNL     1       7.288  -4.214  -0.785  0.00  0.00    +0.000 HD
BRANCH  12  15
ATOM     15  O   UNL     1       7.249  -4.083   1.253  0.00  0.00    +0.000 OA
ATOM     16  H   UNL     1       8.134  -3.801   1.540  0.00  0.00    +0.000 HD
ENDBRANCH  12  15
ENDBRANCH   2  12
TORSDOF 4
ENDMDL
MODEL 6
REMARK VINA RESULT:    -3.413     14.731     15.600
REMARK INTER + INTRA:          -3.926
REMARK INTER:                  -3.910
REMARK INTRA:                  -0.015
REMARK UNBOUND:                -0.014
REMARK  Name = 11173
REMARK  4 active torsions:
REMARK  status: ('A' for Active; 'I' for Inactive)
REMARK    1  A    between atoms: O_1  and  C_6
REMARK    2  A    between atoms: C_2  and  C_4
REMARK    3  A    between atoms: C_2  and  C_5
REMARK    4  A    between atoms: C_3  and  C_6
REMARK                            x       y       z     vdW  Elec       q    Type
REMARK                         _______ _______ _______ _____ _____    ______ ____
ROOT
ATOM      1  C   UNL     1      -6.491 -13.204   5.947  0.00  0.00    +0.000 C 
ATOM      2  C   UNL     1      -6.842 -12.798   4.712  0.00  0.00    +0.000 C 
ATOM      3  H   UNL     1      -6.056 -12.701   3.965  0.00  0.00    +0.000 HD
ENDROOT
BRANCH   1   4
ATOM      4  C   UNL     1      -5.052 -13.517   6.263  0.00  0.00    +0.000 C 
ATOM      5  H   UNL     1      -4.868 -13.412   7.337  0.00  0.00    +0.000 HD
ATOM      6  H   UNL     1      -4.815 -14.545   5.968  0.00  0.00    +0.000 HD
ATOM      7  H   UNL     1      -4.355 -12.854   5.741  0.00  0.00    +0.000 HD
ENDBRANCH   1   4
BRANCH   1   8
ATOM      8  C   UNL     1      -7.431 -13.390   7.104  0.00  0.00    +0.000 C 
ATOM      9  H   UNL     1      -8.456 -13.513   6.738  0.00  0.00    +0.000 HD
ATOM     10  H   UNL     1      -7.203 -14.259   7.723  0.00  0.00    +0.000 HD
ATOM     11  H   UNL     1      -7.402 -12.510   7.755  0.00  0.00    +0.000 HD
ENDBRANCH   1   8
BRANCH   2  12
ATOM     12  C   UNL     1      -8.205 -12.437   4.210  0.00  0.00    +0.000 C 
ATOM     13  H   UNL     1      -8.928 -12.540   5.026  0.00  0.00    +0.000 HD
ATOM     14  H   UNL     1      -8.543 -13.053   3.376  0.00  0.00    +0.000 HD
BRANCH  12  15
ATOM     15  O   UNL     1      -8.209 -11.080   3.782  0.00  0.00    +0.000 OA
ATOM     16  H   UNL     1      -7.300 -10.863   3.513  0.00  0.00    +0.000 HD
ENDBRANCH  12  15
ENDBRANCH   2  12
TORSDOF 4
ENDMDL
MODEL 7
REMARK VINA RESULT:    -3.263     15.213     15.992
REMARK INTER + INTRA:          -3.754
REMARK INTER:                  -3.717
REMARK INTRA:                  -0.037
REMARK UNBOUND:                -0.014
REMARK  Name = 11173
REMARK  4 active torsions:
REMARK  status: ('A' for Active; 'I' for Inactive)
REMARK    1  A    between atoms: O_1  and  C_6
REMARK    2  A    between atoms: C_2  and  C_4
REMARK    3  A    between atoms: C_2  and  C_5
REMARK    4  A    between atoms: C_3  and  C_6
REMARK                            x       y       z     vdW  Elec       q    Type
REMARK                         _______ _______ _______ _____ _____    ______ ____
ROOT
ATOM      1  C   UNL     1       5.338  -2.808  -0.331  0.00  0.00    +0.000 C 
ATOM      2  C   UNL     1       6.593  -2.339  -0.467  0.00  0.00    +0.000 C 
ATOM      3  H   UNL     1       6.848  -1.829  -1.395  0.00  0.00    +0.000 HD
ENDROOT
BRANCH   1   4
ATOM      4  C   UNL     1       4.332  -2.617  -1.435  0.00  0.00    +0.000 C 
ATOM      5  H   UNL     1       4.842  -2.517  -2.399  0.00  0.00    +0.000 HD
ATOM      6  H   UNL     1       3.658  -3.479  -1.486  0.00  0.00    +0.000 HD
ATOM      7  H   UNL     1       3.716  -1.724  -1.291  0.00  0.00    +0.000 HD
ENDBRANCH   1   4
BRANCH   1   8
ATOM      8  C   UNL     1       4.806  -3.539   0.869  0.00  0.00    +0.000 C 
ATOM      9  H   UNL     1       5.525  -3.479   1.693  0.00  0.00    +0.000 HD
ATOM     10  H   UNL     1       3.857  -3.147   1.239  0.00  0.00    +0.000 HD
ATOM     11  H   UNL     1       4.650  -4.595   0.625  0.00  0.00    +0.000 HD
ENDBRANCH   1   8
BRANCH   2  12
ATOM     12  C   UNL     1       7.726  -2.434   0.506  0.00  0.00    +0.000 C 
ATOM     13  H   UNL     1       8.670  -2.271  -0.024  0.00  0.00    +0.000 HD
ATOM     14  H   UNL     1       7.785  -3.395   1.019  0.00  0.00    +0.000 HD
BRANCH  12  15
ATOM     15  O   UNL     1       7.590  -1.418   1.493  0.00  0.00    +0.000 OA
ATOM     16  H   UNL     1       6.667  -1.112   1.462  0.00  0.00    +0.000 HD
ENDBRANCH  12  15
ENDBRANCH   2  12
TORSDOF 4
ENDMDL
MODEL 8
REMARK VINA RESULT:    -3.231     17.248     18.269
REMARK INTER + INTRA:          -3.718
REMARK INTER:                  -3.687
REMARK INTRA:                  -0.031
REMARK UNBOUND:                -0.014
REMARK  Name = 11173
REMARK  4 active torsions:
REMARK  status: ('A' for Active; 'I' for Inactive)
REMARK    1  A    between atoms: O_1  and  C_6
REMARK    2  A    between atoms: C_2  and  C_4
REMARK    3  A    between atoms: C_2  and  C_5
REMARK    4  A    between atoms: C_3  and  C_6
REMARK                            x       y       z     vdW  Elec       q    Type
REMARK                         _______ _______ _______ _____ _____    ______ ____
ROOT
ATOM      1  C   UNL     1       9.723  -2.120  -1.670  0.00  0.00    +0.000 C 
ATOM      2  C   UNL     1       9.043  -2.565  -0.595  0.00  0.00    +0.000 C 
ATOM      3  H   UNL     1       8.926  -3.642  -0.477  0.00  0.00    +0.000 HD
ENDROOT
BRANCH   1   4
ATOM      4  C   UNL     1      10.301  -3.096  -2.660  0.00  0.00    +0.000 C 
ATOM      5  H   UNL     1      11.164  -3.612  -2.224  0.00  0.00    +0.000 HD
ATOM      6  H   UNL     1       9.550  -3.846  -2.935  0.00  0.00    +0.000 HD
ATOM      7  H   UNL     1      10.636  -2.610  -3.582  0.00  0.00    +0.000 HD
ENDBRANCH   1   4
BRANCH   1   8
ATOM      8  C   UNL     1       9.980  -0.678  -2.003  0.00  0.00    +0.000 C 
ATOM      9  H   UNL     1      10.678  -0.245  -1.277  0.00  0.00    +0.000 HD
ATOM     10  H   UNL     1      10.408  -0.524  -2.995  0.00  0.00    +0.000 HD
ATOM     11  H   UNL     1       9.044  -0.111  -1.960  0.00  0.00    +0.000 HD
ENDBRANCH   1   8
BRANCH   2  12
ATOM     12  C   UNL     1       8.395  -1.760   0.487  0.00  0.00    +0.000 C 
ATOM     13  H   UNL     1       7.453  -2.237   0.776  0.00  0.00    +0.000 HD
ATOM     14  H   UNL     1       8.181  -0.730   0.199  0.00  0.00    +0.000 HD
BRANCH  12  15
ATOM     15  O   UNL     1       9.246  -1.729   1.628  0.00  0.00    +0.000 OA
ATOM     16  H   UNL     1       9.687  -2.594   1.678  0.00  0.00    +0.000 HD
ENDBRANCH  12  15
ENDBRANCH   2  12
TORSDOF 4
ENDMDL
MODEL 9
REMARK VINA RESULT:    -3.229     18.601     19.333
REMARK INTER + INTRA:          -3.715
REMARK INTER:                  -3.682
REMARK INTRA:                  -0.033
REMARK UNBOUND:                -0.014
REMARK  Name = 11173
REMARK  4 active torsions:
REMARK  status: ('A' for Active; 'I' for Inactive)
REMARK    1  A    between atoms: O_1  and  C_6
REMARK    2  A    between atoms: C_2  and  C_4
REMARK    3  A    between atoms: C_2  and  C_5
REMARK    4  A    between atoms: C_3  and  C_6
REMARK                            x       y       z     vdW  Elec       q    Type
REMARK                         _______ _______ _______ _____ _____    ______ ____
ROOT
ATOM      1  C   UNL     1     -13.309 -14.926   8.853  0.00  0.00    +0.000 C 
ATOM      2  C   UNL     1     -13.547 -14.351  10.048  0.00  0.00    +0.000 C 
ATOM      3  H   UNL     1     -12.690 -14.022  10.635  0.00  0.00    +0.000 HD
ENDROOT
BRANCH   1   4
ATOM      4  C   UNL     1     -11.896 -15.093   8.360  0.00  0.00    +0.000 C 
ATOM      5  H   UNL     1     -11.757 -16.094   7.938  0.00  0.00    +0.000 HD
ATOM      6  H   UNL     1     -11.677 -14.354   7.581  0.00  0.00    +0.000 HD
ATOM      7  H   UNL     1     -11.156 -14.963   9.156  0.00  0.00    +0.000 HD
ENDBRANCH   1   4
BRANCH   1   8
ATOM      8  C   UNL     1     -14.357 -15.444   7.911  0.00  0.00    +0.000 C 
ATOM      9  H   UNL     1     -15.048 -16.106   8.445  0.00  0.00    +0.000 HD
ATOM     10  H   UNL     1     -14.956 -14.661   7.443  0.00  0.00    +0.000 HD
ATOM     11  H   UNL     1     -13.886 -16.018   7.106  0.00  0.00    +0.000 HD
ENDBRANCH   1   8
BRANCH   2  12
ATOM     12  C   UNL     1     -14.867 -14.104  10.708  0.00  0.00    +0.000 C 
ATOM     13  H   UNL     1     -14.757 -14.224  11.790  0.00  0.00    +0.000 HD
ATOM     14  H   UNL     1     -15.659 -14.773  10.369  0.00  0.00    +0.000 HD
BRANCH  12  15
ATOM     15  O   UNL     1     -15.283 -12.767  10.450  0.00  0.00    +0.000 OA
ATOM     16  H   UNL     1     -15.969 -12.809   9.762  0.00  0.00    +0.000 HD
ENDBRANCH  12  15
ENDBRANCH   2  12
TORSDOF 4
ENDMDL
MODEL 10
REMARK VINA RESULT:    -3.197     20.814     21.871
REMARK INTER + INTRA:          -3.679
REMARK INTER:                  -3.665
REMARK INTRA:                  -0.014
REMARK UNBOUND:                -0.014
REMARK  Name = 11173
REMARK  4 active torsions:
REMARK  status: ('A' for Active; 'I' for Inactive)
REMARK    1  A    between atoms: O_1  and  C_6
REMARK    2  A    between atoms: C_2  and  C_4
REMARK    3  A    between atoms: C_2  and  C_5
REMARK    4  A    between atoms: C_3  and  C_6
REMARK                            x       y       z     vdW  Elec       q    Type
REMARK                         _______ _______ _______ _____ _____    ______ ____
ROOT
ATOM      1  C   UNL     1       6.124  12.827   2.986  0.00  0.00    +0.000 C 
ATOM      2  C   UNL     1       5.780  11.953   2.020  0.00  0.00    +0.000 C 
ATOM      3  H   UNL     1       5.203  11.076   2.309  0.00  0.00    +0.000 HD
ENDROOT
BRANCH   1   4
ATOM      4  C   UNL     1       5.706  12.584   4.412  0.00  0.00    +0.000 C 
ATOM      5  H   UNL     1       4.634  12.367   4.462  0.00  0.00    +0.000 HD
ATOM      6  H   UNL     1       6.253  11.730   4.826  0.00  0.00    +0.000 HD
ATOM      7  H   UNL     1       5.901  13.446   5.059  0.00  0.00    +0.000 HD
ENDBRANCH   1   4
BRANCH   1   8
ATOM      8  C   UNL     1       6.919  14.085   2.782  0.00  0.00    +0.000 C 
ATOM      9  H   UNL     1       6.445  14.918   3.313  0.00  0.00    +0.000 HD
ATOM     10  H   UNL     1       7.948  14.019   3.137  0.00  0.00    +0.000 HD
ATOM     11  H   UNL     1       6.957  14.334   1.716  0.00  0.00    +0.000 HD
ENDBRANCH   1   8
BRANCH   2  12
ATOM     12  C   UNL     1       6.102  12.016   0.560  0.00  0.00    +0.000 C 
ATOM     13  H   UNL     1       6.675  11.127   0.279  0.00  0.00    +0.000 HD
ATOM     14  H   UNL     1       6.679  12.897   0.275  0.00  0.00    +0.000 HD
BRANCH  12  15
ATOM     15  O   UNL     1       4.894  12.022  -0.192  0.00  0.00    +0.000 OA
ATOM     16  H   UNL     1       4.909  12.818  -0.750  0.00  0.00    +0.000 HD
ENDBRANCH  12  15
ENDBRANCH   2  12
TORSDOF 4
ENDMDL
