MODEL 1
REMARK VINA RESULT:    -4.382      0.000      0.000
REMARK INTER + INTRA:          -6.515
REMARK INTER:                  -6.163
REMARK INTRA:                  -0.353
REMARK UNBOUND:                -0.340
REMARK  Name = 61235
REMARK  8 active torsions:
REMARK  status: ('A' for Active; 'I' for Inactive)
REMARK    1  A    between atoms: C_2  and  C_3
REMARK    2  A    between atoms: C_2  and  C_4
REMARK    3  A    between atoms: C_3  and  C_5
REMARK    4  A    between atoms: C_4  and  C_6
REMARK    5  A    between atoms: C_5  and  C_7
REMARK    6  A    between atoms: C_6  and  C_8
REMARK    7  A    between atoms: C_7  and  C_9
REMARK    8  A    between atoms: C_9  and  C_10
REMARK                            x       y       z     vdW  Elec       q    Type
REMARK                         _______ _______ _______ _____ _____    ______ ____
ROOT
ATOM      1  C   UNL     1       0.251  -5.067  16.205  0.00  0.00    +0.000 C 
ATOM      2  H   UNL     1       0.970  -4.882  17.012  0.00  0.00    +0.000 HD
ATOM      3  H   UNL     1      -0.348  -4.153  16.104  0.00  0.00    +0.000 HD
ENDROOT
BRANCH   1   4
ATOM      4  C   UNL     1      -0.664  -6.235  16.588  0.00  0.00    +0.000 C 
ATOM      5  H   UNL     1      -1.584  -6.191  15.992  0.00  0.00    +0.000 HD
ATOM      6  H   UNL     1      -0.955  -6.141  17.641  0.00  0.00    +0.000 HD
BRANCH   4   7
ATOM      7  C   UNL     1       0.031  -7.579  16.366  0.00  0.00    +0.000 C 
ATOM      8  H   UNL     1      -0.336  -8.036  15.439  0.00  0.00    +0.000 HD
ATOM      9  H   UNL     1       1.110  -7.418  16.241  0.00  0.00    +0.000 HD
BRANCH   7  10
ATOM     10  C   UNL     1      -0.209  -8.529  17.539  0.00  0.00    +0.000 C 
ATOM     11  H   UNL     1      -1.224  -8.940  17.484  0.00  0.00    +0.000 HD
ATOM     12  H   UNL     1       0.487  -9.374  17.482  0.00  0.00    +0.000 HD
BRANCH  10  13
ATOM     13  C   UNL     1      -0.031  -7.823  18.874  0.00  0.00    +0.000 C 
ATOM     14  H   UNL     1      -0.023  -8.552  19.690  0.00  0.00    +0.000 HD
ATOM     15  H   UNL     1       0.915  -7.272  18.902  0.00  0.00    +0.000 HD
ATOM     16  H   UNL     1      -0.847  -7.116  19.057  0.00  0.00    +0.000 HD
ENDBRANCH  10  13
ENDBRANCH   7  10
ENDBRANCH   4   7
ENDBRANCH   1   4
BRANCH   1  17
ATOM     17  C   UNL     1       1.004  -5.323  14.901  0.00  0.00    +0.000 C 
ATOM     18  H   UNL     1       0.863  -6.364  14.589  0.00  0.00    +0.000 HD
ATOM     19  H   UNL     1       0.607  -4.670  14.115  0.00  0.00    +0.000 HD
BRANCH  17  21
ATOM     20  O   UNL     1       3.334  -5.905  14.657  0.00  0.00    +0.000 OA
ATOM     21  C   UNL     1       2.501  -5.066  14.994  0.00  0.00    +0.000 C 
BRANCH  21  22
ATOM     22  C   UNL     1       2.900  -3.717  15.570  0.00  0.00    +0.000 C 
ATOM     23  H   UNL     1       3.981  -3.724  15.742  0.00  0.00    +0.000 HD
ATOM     24  H   UNL     1       2.393  -3.595  16.534  0.00  0.00    +0.000 HD
BRANCH  22  25
ATOM     25  C   UNL     1       2.538  -2.559  14.659  0.00  0.00    +0.000 C 
ATOM     26  H   UNL     1       2.129  -1.720  15.232  0.00  0.00    +0.000 HD
ATOM     27  H   UNL     1       1.789  -2.870  13.924  0.00  0.00    +0.000 HD
ATOM     28  H   UNL     1       3.418  -2.195  14.117  0.00  0.00    +0.000 HD
ENDBRANCH  22  25
ENDBRANCH  21  22
ENDBRANCH  17  21
ENDBRANCH   1  17
TORSDOF 8
ENDMDL
MODEL 2
REMARK VINA RESULT:    -4.332     17.420     18.704
REMARK INTER + INTRA:          -6.445
REMARK INTER:                  -6.022
REMARK INTRA:                  -0.423
REMARK UNBOUND:                -0.340
REMARK  Name = 61235
REMARK  8 active torsions:
REMARK  status: ('A' for Active; 'I' for Inactive)
REMARK    1  A    between atoms: C_2  and  C_3
REMARK    2  A    between atoms: C_2  and  C_4
REMARK    3  A    between atoms: C_3  and  C_5
REMARK    4  A    between atoms: C_4  and  C_6
REMARK    5  A    between atoms: C_5  and  C_7
REMARK    6  A    between atoms: C_6  and  C_8
REMARK    7  A    between atoms: C_7  and  C_9
REMARK    8  A    between atoms: C_9  and  C_10
REMARK                            x       y       z     vdW  Elec       q    Type
REMARK                         _______ _______ _______ _____ _____    ______ ____
ROOT
ATOM      1  C   UNL     1       7.235  -2.745  -0.023  0.00  0.00    +0.000 C 
ATOM      2  H   UNL     1       7.896  -3.410   0.546  0.00  0.00    +0.000 HD
ATOM      3  H   UNL     1       6.401  -2.490   0.643  0.00  0.00    +0.000 HD
ENDROOT
BRANCH   1   4
ATOM      4  C   UNL     1       6.697  -3.482  -1.253  0.00  0.00    +0.000 C 
ATOM      5  H   UNL     1       6.594  -4.549  -1.027  0.00  0.00    +0.000 HD
ATOM      6  H   UNL     1       7.416  -3.392  -2.076  0.00  0.00    +0.000 HD
BRANCH   4   7
ATOM      7  C   UNL     1       5.344  -2.915  -1.690  0.00  0.00    +0.000 C 
ATOM      8  H   UNL     1       5.469  -1.876  -2.021  0.00  0.00    +0.000 HD
ATOM      9  H   UNL     1       4.968  -3.484  -2.550  0.00  0.00    +0.000 HD
BRANCH   7  10
ATOM     10  C   UNL     1       4.324  -2.974  -0.554  0.00  0.00    +0.000 C 
ATOM     11  H   UNL     1       4.115  -4.019  -0.295  0.00  0.00    +0.000 HD
ATOM     12  H   UNL     1       4.735  -2.493   0.341  0.00  0.00    +0.000 HD
BRANCH  10  13
ATOM     13  C   UNL     1       3.022  -2.289  -0.938  0.00  0.00    +0.000 C 
ATOM     14  H   UNL     1       3.193  -1.583  -1.757  0.00  0.00    +0.000 HD
ATOM     15  H   UNL     1       2.277  -3.020  -1.270  0.00  0.00    +0.000 HD
ATOM     16  H   UNL     1       2.605  -1.733  -0.092  0.00  0.00    +0.000 HD
ENDBRANCH  10  13
ENDBRANCH   7  10
ENDBRANCH   4   7
ENDBRANCH   1   4
BRANCH   1  17
ATOM     17  C   UNL     1       7.993  -1.471  -0.392  0.00  0.00    +0.000 C 
ATOM     18  H   UNL     1       7.512  -0.991  -1.253  0.00  0.00    +0.000 HD
ATOM     19  H   UNL     1       7.967  -0.772   0.451  0.00  0.00    +0.000 HD
BRANCH  17  21
ATOM     20  O   UNL     1      10.316  -1.897   0.108  0.00  0.00    +0.000 OA
ATOM     21  C   UNL     1       9.454  -1.704  -0.748  0.00  0.00    +0.000 C 
BRANCH  21  22
ATOM     22  C   UNL     1       9.785  -1.644  -2.230  0.00  0.00    +0.000 C 
ATOM     23  H   UNL     1      10.591  -0.917  -2.372  0.00  0.00    +0.000 HD
ATOM     24  H   UNL     1       8.896  -1.290  -2.764  0.00  0.00    +0.000 HD
BRANCH  22  25
ATOM     25  C   UNL     1      10.209  -2.989  -2.792  0.00  0.00    +0.000 C 
ATOM     26  H   UNL     1      11.259  -3.197  -2.563  0.00  0.00    +0.000 HD
ATOM     27  H   UNL     1      10.086  -3.004  -3.879  0.00  0.00    +0.000 HD
ATOM     28  H   UNL     1       9.607  -3.800  -2.368  0.00  0.00    +0.000 HD
ENDBRANCH  22  25
ENDBRANCH  21  22
ENDBRANCH  17  21
ENDBRANCH   1  17
TORSDOF 8
ENDMDL
MODEL 3
REMARK VINA RESULT:    -4.265     17.104     18.919
REMARK INTER + INTRA:          -6.351
REMARK INTER:                  -5.789
REMARK INTRA:                  -0.562
REMARK UNBOUND:                -0.340
REMARK  Name = 61235
REMARK  8 active torsions:
REMARK  status: ('A' for Active; 'I' for Inactive)
REMARK    1  A    between atoms: C_2  and  C_3
REMARK    2  A    between atoms: C_2  and  C_4
REMARK    3  A    between atoms: C_3  and  C_5
REMARK    4  A    between atoms: C_4  and  C_6
REMARK    5  A    between atoms: C_5  and  C_7
REMARK    6  A    between atoms: C_6  and  C_8
REMARK    7  A    between atoms: C_7  and  C_9
REMARK    8  A    between atoms: C_9  and  C_10
REMARK                            x       y       z     vdW  Elec       q    Type
REMARK                         _______ _______ _______ _____ _____    ______ ____
ROOT
ATOM      1  C   UNL     1       7.424  -2.571   0.496  0.00  0.00    +0.000 C 
ATOM      2  H   UNL     1       6.841  -2.145   1.321  0.00  0.00    +0.000 HD
ATOM      3  H   UNL     1       8.279  -3.086   0.951  0.00  0.00    +0.000 HD
ENDROOT
BRANCH   1   4
ATOM      4  C   UNL     1       7.932  -1.446  -0.412  0.00  0.00    +0.000 C 
ATOM      5  H   UNL     1       7.976  -0.509   0.155  0.00  0.00    +0.000 HD
ATOM      6  H   UNL     1       7.224  -1.294  -1.235  0.00  0.00    +0.000 HD
BRANCH   4   7
ATOM      7  C   UNL     1       9.315  -1.773  -0.978  0.00  0.00    +0.000 C 
ATOM      8  H   UNL     1       9.990  -0.925  -0.816  0.00  0.00    +0.000 HD
ATOM      9  H   UNL     1       9.738  -2.631  -0.440  0.00  0.00    +0.000 HD
BRANCH   7  10
ATOM     10  C   UNL     1       9.242  -2.095  -2.471  0.00  0.00    +0.000 C 
ATOM     11  H   UNL     1       8.250  -2.489  -2.719  0.00  0.00    +0.000 HD
ATOM     12  H   UNL     1       9.383  -1.179  -3.056  0.00  0.00    +0.000 HD
BRANCH  10  13
ATOM     13  C   UNL     1      10.296  -3.114  -2.874  0.00  0.00    +0.000 C 
ATOM     14  H   UNL     1      11.147  -3.070  -2.187  0.00  0.00    +0.000 HD
ATOM     15  H   UNL     1       9.890  -4.130  -2.846  0.00  0.00    +0.000 HD
ATOM     16  H   UNL     1      10.665  -2.918  -3.886  0.00  0.00    +0.000 HD
ENDBRANCH  10  13
ENDBRANCH   7  10
ENDBRANCH   4   7
ENDBRANCH   1   4
BRANCH   1  17
ATOM     17  C   UNL     1       6.568  -3.587  -0.260  0.00  0.00    +0.000 C 
ATOM     18  H   UNL     1       6.955  -3.711  -1.279  0.00  0.00    +0.000 HD
ATOM     19  H   UNL     1       6.617  -4.557   0.248  0.00  0.00    +0.000 HD
BRANCH  17  21
ATOM     20  O   UNL     1       4.332  -3.272   0.592  0.00  0.00    +0.000 OA
ATOM     21  C   UNL     1       5.101  -3.199  -0.365  0.00  0.00    +0.000 C 
BRANCH  21  22
ATOM     22  C   UNL     1       4.638  -2.752  -1.742  0.00  0.00    +0.000 C 
ATOM     23  H   UNL     1       4.609  -1.658  -1.755  0.00  0.00    +0.000 HD
ATOM     24  H   UNL     1       3.622  -3.131  -1.899  0.00  0.00    +0.000 HD
BRANCH  22  25
ATOM     25  C   UNL     1       5.541  -3.249  -2.855  0.00  0.00    +0.000 C 
ATOM     26  H   UNL     1       6.589  -3.010  -2.647  0.00  0.00    +0.000 HD
ATOM     27  H   UNL     1       5.266  -2.784  -3.807  0.00  0.00    +0.000 HD
ATOM     28  H   UNL     1       5.462  -4.336  -2.970  0.00  0.00    +0.000 HD
ENDBRANCH  22  25
ENDBRANCH  21  22
ENDBRANCH  17  21
ENDBRANCH   1  17
TORSDOF 8
ENDMDL
MODEL 4
REMARK VINA RESULT:    -4.224      1.964      4.170
REMARK INTER + INTRA:          -6.293
REMARK INTER:                  -5.692
REMARK INTRA:                  -0.601
REMARK UNBOUND:                -0.340
REMARK  Name = 61235
REMARK  8 active torsions:
REMARK  status: ('A' for Active; 'I' for Inactive)
REMARK    1  A    between atoms: C_2  and  C_3
REMARK    2  A    between atoms: C_2  and  C_4
REMARK    3  A    between atoms: C_3  and  C_5
REMARK    4  A    between atoms: C_4  and  C_6
REMARK    5  A    between atoms: C_5  and  C_7
REMARK    6  A    between atoms: C_6  and  C_8
REMARK    7  A    between atoms: C_7  and  C_9
REMARK    8  A    between atoms: C_9  and  C_10
REMARK                            x       y       z     vdW  Elec       q    Type
REMARK                         _______ _______ _______ _____ _____    ______ ____
ROOT
ATOM      1  C   UNL     1      -0.251  -6.166  15.963  0.00  0.00    +0.000 C 
ATOM      2  H   UNL     1      -1.258  -5.955  15.584  0.00  0.00    +0.000 HD
ATOM      3  H   UNL     1      -0.380  -6.723  16.899  0.00  0.00    +0.000 HD
ENDROOT
BRANCH   1   4
ATOM      4  C   UNL     1       0.478  -4.850  16.251  0.00  0.00    +0.000 C 
ATOM      5  H   UNL     1       1.176  -4.992  17.085  0.00  0.00    +0.000 HD
ATOM      6  H   UNL     1      -0.249  -4.090  16.562  0.00  0.00    +0.000 HD
BRANCH   4   7
ATOM      7  C   UNL     1       1.239  -4.357  15.018  0.00  0.00    +0.000 C 
ATOM      8  H   UNL     1       1.221  -5.129  14.240  0.00  0.00    +0.000 HD
ATOM      9  H   UNL     1       0.737  -3.472  14.607  0.00  0.00    +0.000 HD
BRANCH   7  10
ATOM     10  C   UNL     1       2.686  -4.006  15.362  0.00  0.00    +0.000 C 
ATOM     11  H   UNL     1       2.817  -3.986  16.450  0.00  0.00    +0.000 HD
ATOM     12  H   UNL     1       3.359  -4.777  14.968  0.00  0.00    +0.000 HD
BRANCH  10  13
ATOM     13  C   UNL     1       3.084  -2.655  14.789  0.00  0.00    +0.000 C 
ATOM     14  H   UNL     1       3.078  -1.894  15.576  0.00  0.00    +0.000 HD
ATOM     15  H   UNL     1       4.090  -2.691  14.360  0.00  0.00    +0.000 HD
ATOM     16  H   UNL     1       2.386  -2.339  14.006  0.00  0.00    +0.000 HD
ENDBRANCH  10  13
ENDBRANCH   7  10
ENDBRANCH   4   7
ENDBRANCH   1   4
BRANCH   1  17
ATOM     17  C   UNL     1       0.498  -7.038  14.957  0.00  0.00    +0.000 C 
ATOM     18  H   UNL     1      -0.200  -7.737  14.482  0.00  0.00    +0.000 HD
ATOM     19  H   UNL     1       0.935  -6.403  14.177  0.00  0.00    +0.000 HD
BRANCH  17  21
ATOM     20  O   UNL     1       1.491  -8.483  16.616  0.00  0.00    +0.000 OA
ATOM     21  C   UNL     1       1.628  -7.853  15.569  0.00  0.00    +0.000 C 
BRANCH  21  22
ATOM     22  C   UNL     1       2.950  -7.805  14.821  0.00  0.00    +0.000 C 
ATOM     23  H   UNL     1       3.421  -8.791  14.894  0.00  0.00    +0.000 HD
ATOM     24  H   UNL     1       3.596  -7.071  15.316  0.00  0.00    +0.000 HD
BRANCH  22  25
ATOM     25  C   UNL     1       2.785  -7.428  13.359  0.00  0.00    +0.000 C 
ATOM     26  H   UNL     1       2.919  -8.300  12.711  0.00  0.00    +0.000 HD
ATOM     27  H   UNL     1       3.524  -6.673  13.075  0.00  0.00    +0.000 HD
ATOM     28  H   UNL     1       1.787  -7.020  13.169  0.00  0.00    +0.000 HD
ENDBRANCH  22  25
ENDBRANCH  21  22
ENDBRANCH  17  21
ENDBRANCH   1  17
TORSDOF 8
ENDMDL
MODEL 5
REMARK VINA RESULT:    -4.199     19.758     21.600
REMARK INTER + INTRA:          -6.257
REMARK INTER:                  -6.021
REMARK INTRA:                  -0.237
REMARK UNBOUND:                -0.340
REMARK  Name = 61235
REMARK  8 active torsions:
REMARK  status: ('A' for Active; 'I' for Inactive)
REMARK    1  A    between atoms: C_2  and  C_3
REMARK    2  A    between atoms: C_2  and  C_4
REMARK    3  A    between atoms: C_3  and  C_5
REMARK    4  A    between atoms: C_4  and  C_6
REMARK    5  A    between atoms: C_5  and  C_7
REMARK    6  A    between atoms: C_6  and  C_8
REMARK    7  A    between atoms: C_7  and  C_9
REMARK    8  A    between atoms: C_9  and  C_10
REMARK                            x       y       z     vdW  Elec       q    Type
REMARK                         _______ _______ _______ _____ _____    ______ ____
ROOT
ATOM      1  C   UNL     1      11.110 -10.157  -2.169  0.00  0.00    +0.000 C 
ATOM      2  H   UNL     1      11.744 -10.850  -1.603  0.00  0.00    +0.000 HD
ATOM      3  H   UNL     1      10.309 -10.760  -2.614  0.00  0.00    +0.000 HD
ENDROOT
BRANCH   1   4
ATOM      4  C   UNL     1      11.931  -9.500  -3.283  0.00  0.00    +0.000 C 
ATOM      5  H   UNL     1      11.769  -8.416  -3.269  0.00  0.00    +0.000 HD
ATOM      6  H   UNL     1      11.586  -9.868  -4.257  0.00  0.00    +0.000 HD
BRANCH   4   7
ATOM      7  C   UNL     1      13.423  -9.801  -3.122  0.00  0.00    +0.000 C 
ATOM      8  H   UNL     1      13.850  -9.146  -2.352  0.00  0.00    +0.000 HD
ATOM      9  H   UNL     1      13.554 -10.834  -2.775  0.00  0.00    +0.000 HD
BRANCH   7  10
ATOM     10  C   UNL     1      14.175  -9.606  -4.438  0.00  0.00    +0.000 C 
ATOM     11  H   UNL     1      15.078  -9.009  -4.267  0.00  0.00    +0.000 HD
ATOM     12  H   UNL     1      14.496 -10.578  -4.830  0.00  0.00    +0.000 HD
BRANCH  10  13
ATOM     13  C   UNL     1      13.309  -8.910  -5.476  0.00  0.00    +0.000 C 
ATOM     14  H   UNL     1      13.738  -7.936  -5.735  0.00  0.00    +0.000 HD
ATOM     15  H   UNL     1      13.241  -9.505  -6.393  0.00  0.00    +0.000 HD
ATOM     16  H   UNL     1      12.295  -8.745  -5.097  0.00  0.00    +0.000 HD
ENDBRANCH  10  13
ENDBRANCH   7  10
ENDBRANCH   4   7
ENDBRANCH   1   4
BRANCH   1  17
ATOM     17  C   UNL     1      10.499  -9.132  -1.215  0.00  0.00    +0.000 C 
ATOM     18  H   UNL     1      11.237  -8.846  -0.457  0.00  0.00    +0.000 HD
ATOM     19  H   UNL     1      10.215  -8.234  -1.776  0.00  0.00    +0.000 HD
BRANCH  17  21
ATOM     20  O   UNL     1       8.711  -8.979   0.399  0.00  0.00    +0.000 OA
ATOM     21  C   UNL     1       9.257  -9.629  -0.490  0.00  0.00    +0.000 C 
BRANCH  21  22
ATOM     22  C   UNL     1       8.759 -11.002  -0.911  0.00  0.00    +0.000 C 
ATOM     23  H   UNL     1       9.627 -11.655  -1.044  0.00  0.00    +0.000 HD
ATOM     24  H   UNL     1       8.247 -10.899  -1.874  0.00  0.00    +0.000 HD
BRANCH  22  25
ATOM     25  C   UNL     1       7.811 -11.619   0.102  0.00  0.00    +0.000 C 
ATOM     26  H   UNL     1       8.356 -11.996   0.972  0.00  0.00    +0.000 HD
ATOM     27  H   UNL     1       7.263 -12.452  -0.347  0.00  0.00    +0.000 HD
ATOM     28  H   UNL     1       7.082 -10.882   0.457  0.00  0.00    +0.000 HD
ENDBRANCH  22  25
ENDBRANCH  21  22
ENDBRANCH  17  21
ENDBRANCH   1  17
TORSDOF 8
ENDMDL
MODEL 6
REMARK VINA RESULT:    -4.062     16.607     18.130
REMARK INTER + INTRA:          -6.064
REMARK INTER:                  -5.719
REMARK INTRA:                  -0.346
REMARK UNBOUND:                -0.340
REMARK  Name = 61235
REMARK  8 active torsions:
REMARK  status: ('A' for Active; 'I' for Inactive)
REMARK    1  A    between atoms: C_2  and  C_3
REMARK    2  A    between atoms: C_2  and  C_4
REMARK    3  A    between atoms: C_3  and  C_5
REMARK    4  A    between atoms: C_4  and  C_6
REMARK    5  A    between atoms: C_5  and  C_7
REMARK    6  A    between atoms: C_6  and  C_8
REMARK    7  A    between atoms: C_7  and  C_9
REMARK    8  A    between atoms: C_9  and  C_10
REMARK                            x       y       z     vdW  Elec       q    Type
REMARK                         _______ _______ _______ _____ _____    ______ ____
ROOT
ATOM      1  C   UNL     1       6.395 -12.707  -0.760  0.00  0.00    +0.000 C 
ATOM      2  H   UNL     1       5.887 -12.997  -1.688  0.00  0.00    +0.000 HD
ATOM      3  H   UNL     1       6.259 -11.624  -0.654  0.00  0.00    +0.000 HD
ENDROOT
BRANCH   1   4
ATOM      4  C   UNL     1       7.890 -13.024  -0.871  0.00  0.00    +0.000 C 
ATOM      5  H   UNL     1       8.084 -13.560  -1.807  0.00  0.00    +0.000 HD
ATOM      6  H   UNL     1       8.184 -13.689  -0.050  0.00  0.00    +0.000 HD
BRANCH   4   7
ATOM      7  C   UNL     1       8.731 -11.747  -0.822  0.00  0.00    +0.000 C 
ATOM      8  H   UNL     1       9.529 -11.858  -0.078  0.00  0.00    +0.000 HD
ATOM      9  H   UNL     1       9.217 -11.590  -1.794  0.00  0.00    +0.000 HD
BRANCH   7  10
ATOM     10  C   UNL     1       7.874 -10.529  -0.480  0.00  0.00    +0.000 C 
ATOM     11  H   UNL     1       7.057 -10.432  -1.205  0.00  0.00    +0.000 HD
ATOM     12  H   UNL     1       7.418 -10.661   0.508  0.00  0.00    +0.000 HD
BRANCH  10  13
ATOM     13  C   UNL     1       8.695  -9.249  -0.485  0.00  0.00    +0.000 C 
ATOM     14  H   UNL     1       9.764  -9.486  -0.478  0.00  0.00    +0.000 HD
ATOM     15  H   UNL     1       8.486  -8.652  -1.378  0.00  0.00    +0.000 HD
ATOM     16  H   UNL     1       8.476  -8.638   0.397  0.00  0.00    +0.000 HD
ENDBRANCH  10  13
ENDBRANCH   7  10
ENDBRANCH   4   7
ENDBRANCH   1   4
BRANCH   1  17
ATOM     17  C   UNL     1       5.736 -13.416   0.422  0.00  0.00    +0.000 C 
ATOM     18  H   UNL     1       4.840 -13.947   0.082  0.00  0.00    +0.000 HD
ATOM     19  H   UNL     1       6.433 -14.149   0.844  0.00  0.00    +0.000 HD
BRANCH  17  21
ATOM     20  O   UNL     1       6.129 -12.029   2.359  0.00  0.00    +0.000 OA
ATOM     21  C   UNL     1       5.322 -12.480   1.548  0.00  0.00    +0.000 C 
BRANCH  21  22
ATOM     22  C   UNL     1       3.836 -12.169   1.629  0.00  0.00    +0.000 C 
ATOM     23  H   UNL     1       3.336 -12.672   0.795  0.00  0.00    +0.000 HD
ATOM     24  H   UNL     1       3.708 -11.087   1.513  0.00  0.00    +0.000 HD
BRANCH  22  25
ATOM     25  C   UNL     1       3.213 -12.616   2.939  0.00  0.00    +0.000 C 
ATOM     26  H   UNL     1       2.161 -12.887   2.801  0.00  0.00    +0.000 HD
ATOM     27  H   UNL     1       3.266 -11.813   3.680  0.00  0.00    +0.000 HD
ATOM     28  H   UNL     1       3.733 -13.490   3.344  0.00  0.00    +0.000 HD
ENDBRANCH  22  25
ENDBRANCH  21  22
ENDBRANCH  17  21
ENDBRANCH   1  17
TORSDOF 8
ENDMDL
MODEL 7
REMARK VINA RESULT:    -4.027     17.341     18.412
REMARK INTER + INTRA:          -6.015
REMARK INTER:                  -5.693
REMARK INTRA:                  -0.323
REMARK UNBOUND:                -0.340
REMARK  Name = 61235
REMARK  8 active torsions:
REMARK  status: ('A' for Active; 'I' for Inactive)
REMARK    1  A    between atoms: C_2  and  C_3
REMARK    2  A    between atoms: C_2  and  C_4
REMARK    3  A    between atoms: C_3  and  C_5
REMARK    4  A    between atoms: C_4  and  C_6
REMARK    5  A    between atoms: C_5  and  C_7
REMARK    6  A    between atoms: C_6  and  C_8
REMARK    7  A    between atoms: C_7  and  C_9
REMARK    8  A    between atoms: C_9  and  C_10
REMARK                            x       y       z     vdW  Elec       q    Type
REMARK                         _______ _______ _______ _____ _____    ______ ____
ROOT
ATOM      1  C   UNL     1       6.527 -13.185  -0.736  0.00  0.00    +0.000 C 
ATOM      2  H   UNL     1       6.462 -12.865  -1.784  0.00  0.00    +0.000 HD
ATOM      3  H   UNL     1       6.551 -14.282  -0.746  0.00  0.00    +0.000 HD
ENDROOT
BRANCH   1   4
ATOM      4  C   UNL     1       5.287 -12.710   0.027  0.00  0.00    +0.000 C 
ATOM      5  H   UNL     1       5.596 -12.129   0.904  0.00  0.00    +0.000 HD
ATOM      6  H   UNL     1       4.728 -13.579   0.393  0.00  0.00    +0.000 HD
BRANCH   4   7
ATOM      7  C   UNL     1       4.382 -11.856  -0.865  0.00  0.00    +0.000 C 
ATOM      8  H   UNL     1       4.981 -11.090  -1.372  0.00  0.00    +0.000 HD
ATOM      9  H   UNL     1       3.936 -12.486  -1.645  0.00  0.00    +0.000 HD
BRANCH   7  10
ATOM     10  C   UNL     1       3.273 -11.189  -0.053  0.00  0.00    +0.000 C 
ATOM     11  H   UNL     1       3.395 -10.100  -0.080  0.00  0.00    +0.000 HD
ATOM     12  H   UNL     1       2.298 -11.418  -0.497  0.00  0.00    +0.000 HD
BRANCH  10  13
ATOM     13  C   UNL     1       3.285 -11.653   1.395  0.00  0.00    +0.000 C 
ATOM     14  H   UNL     1       3.427 -12.737   1.444  0.00  0.00    +0.000 HD
ATOM     15  H   UNL     1       4.100 -11.179   1.952  0.00  0.00    +0.000 HD
ATOM     16  H   UNL     1       2.341 -11.411   1.894  0.00  0.00    +0.000 HD
ENDBRANCH  10  13
ENDBRANCH   7  10
ENDBRANCH   4   7
ENDBRANCH   1   4
BRANCH   1  17
ATOM     17  C   UNL     1       7.825 -12.659  -0.124  0.00  0.00    +0.000 C 
ATOM     18  H   UNL     1       7.626 -12.262   0.878  0.00  0.00    +0.000 HD
ATOM     19  H   UNL     1       8.546 -13.480  -0.034  0.00  0.00    +0.000 HD
BRANCH  17  21
ATOM     20  O   UNL     1       9.292 -11.795  -1.835  0.00  0.00    +0.000 OA
ATOM     21  C   UNL     1       8.486 -11.556  -0.938  0.00  0.00    +0.000 C 
BRANCH  21  22
ATOM     22  C   UNL     1       8.115 -10.137  -0.540  0.00  0.00    +0.000 C 
ATOM     23  H   UNL     1       7.772 -10.151   0.499  0.00  0.00    +0.000 HD
ATOM     24  H   UNL     1       7.286  -9.810  -1.178  0.00  0.00    +0.000 HD
BRANCH  22  25
ATOM     25  C   UNL     1       9.274  -9.166  -0.680  0.00  0.00    +0.000 C 
ATOM     26  H   UNL     1       9.628  -9.124  -1.715  0.00  0.00    +0.000 HD
ATOM     27  H   UNL     1      10.109  -9.474  -0.044  0.00  0.00    +0.000 HD
ATOM     28  H   UNL     1       8.975  -8.154  -0.387  0.00  0.00    +0.000 HD
ENDBRANCH  22  25
ENDBRANCH  21  22
ENDBRANCH  17  21
ENDBRANCH   1  17
TORSDOF 8
ENDMDL
MODEL 8
REMARK VINA RESULT:    -3.994     25.107     26.310
REMARK INTER + INTRA:          -5.968
REMARK INTER:                  -5.409
REMARK INTRA:                  -0.559
REMARK UNBOUND:                -0.340
REMARK  Name = 61235
REMARK  8 active torsions:
REMARK  status: ('A' for Active; 'I' for Inactive)
REMARK    1  A    between atoms: C_2  and  C_3
REMARK    2  A    between atoms: C_2  and  C_4
REMARK    3  A    between atoms: C_3  and  C_5
REMARK    4  A    between atoms: C_4  and  C_6
REMARK    5  A    between atoms: C_5  and  C_7
REMARK    6  A    between atoms: C_6  and  C_8
REMARK    7  A    between atoms: C_7  and  C_9
REMARK    8  A    between atoms: C_9  and  C_10
REMARK                            x       y       z     vdW  Elec       q    Type
REMARK                         _______ _______ _______ _____ _____    ______ ____
ROOT
ATOM      1  C   UNL     1      -3.924  -6.724  -9.524  0.00  0.00    +0.000 C 
ATOM      2  H   UNL     1      -4.216  -6.611  -8.472  0.00  0.00    +0.000 HD
ATOM      3  H   UNL     1      -3.322  -5.843  -9.778  0.00  0.00    +0.000 HD
ENDROOT
BRANCH   1   4
ATOM      4  C   UNL     1      -5.176  -6.756 -10.406  0.00  0.00    +0.000 C 
ATOM      5  H   UNL     1      -5.314  -7.765 -10.812  0.00  0.00    +0.000 HD
ATOM      6  H   UNL     1      -5.040  -6.079 -11.258  0.00  0.00    +0.000 HD
BRANCH   4   7
ATOM      7  C   UNL     1      -6.421  -6.343  -9.617  0.00  0.00    +0.000 C 
ATOM      8  H   UNL     1      -6.893  -5.479 -10.098  0.00  0.00    +0.000 HD
ATOM      9  H   UNL     1      -7.153  -7.161  -9.631  0.00  0.00    +0.000 HD
BRANCH   7  10
ATOM     10  C   UNL     1      -6.071  -5.999  -8.169  0.00  0.00    +0.000 C 
ATOM     11  H   UNL     1      -4.998  -6.148  -7.999  0.00  0.00    +0.000 HD
ATOM     12  H   UNL     1      -6.288  -4.942  -7.976  0.00  0.00    +0.000 HD
BRANCH  10  13
ATOM     13  C   UNL     1      -6.852  -6.859  -7.188  0.00  0.00    +0.000 C 
ATOM     14  H   UNL     1      -6.192  -7.225  -6.396  0.00  0.00    +0.000 HD
ATOM     15  H   UNL     1      -7.659  -6.284  -6.719  0.00  0.00    +0.000 HD
ATOM     16  H   UNL     1      -7.294  -7.726  -7.689  0.00  0.00    +0.000 HD
ENDBRANCH  10  13
ENDBRANCH   7  10
ENDBRANCH   4   7
ENDBRANCH   1   4
BRANCH   1  17
ATOM     17  C   UNL     1      -3.069  -7.981  -9.681  0.00  0.00    +0.000 C 
ATOM     18  H   UNL     1      -2.939  -8.208 -10.745  0.00  0.00    +0.000 HD
ATOM     19  H   UNL     1      -2.081  -7.808  -9.241  0.00  0.00    +0.000 HD
BRANCH  17  21
ATOM     20  O   UNL     1      -3.767  -9.310  -7.790  0.00  0.00    +0.000 OA
ATOM     21  C   UNL     1      -3.658  -9.214  -9.011  0.00  0.00    +0.000 C 
BRANCH  21  22
ATOM     22  C   UNL     1      -4.067 -10.337  -9.950  0.00  0.00    +0.000 C 
ATOM     23  H   UNL     1      -5.133 -10.535  -9.804  0.00  0.00    +0.000 HD
ATOM     24  H   UNL     1      -3.503 -11.234  -9.674  0.00  0.00    +0.000 HD
BRANCH  22  25
ATOM     25  C   UNL     1      -3.807 -10.006 -11.409  0.00  0.00    +0.000 C 
ATOM     26  H   UNL     1      -3.147  -9.138 -11.504  0.00  0.00    +0.000 HD
ATOM     27  H   UNL     1      -4.747  -9.781 -11.922  0.00  0.00    +0.000 HD
ATOM     28  H   UNL     1      -3.330 -10.848 -11.924  0.00  0.00    +0.000 HD
ENDBRANCH  22  25
ENDBRANCH  21  22
ENDBRANCH  17  21
ENDBRANCH   1  17
TORSDOF 8
ENDMDL
MODEL 9
REMARK VINA RESULT:    -3.969      1.581      4.953
REMARK INTER + INTRA:          -5.934
REMARK INTER:                  -5.597
REMARK INTRA:                  -0.337
REMARK UNBOUND:                -0.340
REMARK  Name = 61235
REMARK  8 active torsions:
REMARK  status: ('A' for Active; 'I' for Inactive)
REMARK    1  A    between atoms: C_2  and  C_3
REMARK    2  A    between atoms: C_2  and  C_4
REMARK    3  A    between atoms: C_3  and  C_5
REMARK    4  A    between atoms: C_4  and  C_6
REMARK    5  A    between atoms: C_5  and  C_7
REMARK    6  A    between atoms: C_6  and  C_8
REMARK    7  A    between atoms: C_7  and  C_9
REMARK    8  A    between atoms: C_9  and  C_10
REMARK                            x       y       z     vdW  Elec       q    Type
REMARK                         _______ _______ _______ _____ _____    ______ ____
ROOT
ATOM      1  C   UNL     1      -0.548  -6.645  16.252  0.00  0.00    +0.000 C 
ATOM      2  H   UNL     1      -0.023  -7.173  15.446  0.00  0.00    +0.000 HD
ATOM      3  H   UNL     1      -1.618  -6.699  16.015  0.00  0.00    +0.000 HD
ENDROOT
BRANCH   1   4
ATOM      4  C   UNL     1      -0.107  -5.178  16.280  0.00  0.00    +0.000 C 
ATOM      5  H   UNL     1       0.282  -4.931  17.275  0.00  0.00    +0.000 HD
ATOM      6  H   UNL     1      -0.976  -4.532  16.102  0.00  0.00    +0.000 HD
BRANCH   4   7
ATOM      7  C   UNL     1       0.963  -4.901  15.223  0.00  0.00    +0.000 C 
ATOM      8  H   UNL     1       1.276  -5.844  14.758  0.00  0.00    +0.000 HD
ATOM      9  H   UNL     1       0.540  -4.274  14.428  0.00  0.00    +0.000 HD
BRANCH   7  10
ATOM     10  C   UNL     1       2.177  -4.200  15.832  0.00  0.00    +0.000 C 
ATOM     11  H   UNL     1       2.017  -4.042  16.905  0.00  0.00    +0.000 HD
ATOM     12  H   UNL     1       3.065  -4.834  15.725  0.00  0.00    +0.000 HD
BRANCH  10  13
ATOM     13  C   UNL     1       2.437  -2.857  15.167  0.00  0.00    +0.000 C 
ATOM     14  H   UNL     1       2.082  -2.043  15.806  0.00  0.00    +0.000 HD
ATOM     15  H   UNL     1       3.507  -2.708  14.990  0.00  0.00    +0.000 HD
ATOM     16  H   UNL     1       1.917  -2.787  14.206  0.00  0.00    +0.000 HD
ENDBRANCH  10  13
ENDBRANCH   7  10
ENDBRANCH   4   7
ENDBRANCH   1   4
BRANCH   1  17
ATOM     17  C   UNL     1      -0.289  -7.356  17.579  0.00  0.00    +0.000 C 
ATOM     18  H   UNL     1      -0.373  -6.640  18.405  0.00  0.00    +0.000 HD
ATOM     19  H   UNL     1      -1.039  -8.142  17.726  0.00  0.00    +0.000 HD
BRANCH  17  21
ATOM     20  O   UNL     1       2.100  -7.370  17.921  0.00  0.00    +0.000 OA
ATOM     21  C   UNL     1       1.081  -8.011  17.669  0.00  0.00    +0.000 C 
BRANCH  21  22
ATOM     22  C   UNL     1       1.114  -9.504  17.388  0.00  0.00    +0.000 C 
ATOM     23  H   UNL     1       1.864  -9.960  18.043  0.00  0.00    +0.000 HD
ATOM     24  H   UNL     1       1.424  -9.648  16.348  0.00  0.00    +0.000 HD
BRANCH  22  25
ATOM     25  C   UNL     1      -0.230 -10.174  17.612  0.00  0.00    +0.000 C 
ATOM     26  H   UNL     1      -0.119 -11.088  18.203  0.00  0.00    +0.000 HD
ATOM     27  H   UNL     1      -0.689 -10.437  16.655  0.00  0.00    +0.000 HD
ATOM     28  H   UNL     1      -0.915  -9.509  18.150  0.00  0.00    +0.000 HD
ENDBRANCH  22  25
ENDBRANCH  21  22
ENDBRANCH  17  21
ENDBRANCH   1  17
TORSDOF 8
ENDMDL
MODEL 10
REMARK VINA RESULT:    -3.858     16.574     17.500
REMARK INTER + INTRA:          -5.777
REMARK INTER:                  -5.437
REMARK INTRA:                  -0.340
REMARK UNBOUND:                -0.340
REMARK  Name = 61235
REMARK  8 active torsions:
REMARK  status: ('A' for Active; 'I' for Inactive)
REMARK    1  A    between atoms: C_2  and  C_3
REMARK    2  A    between atoms: C_2  and  C_4
REMARK    3  A    between atoms: C_3  and  C_5
REMARK    4  A    between atoms: C_4  and  C_6
REMARK    5  A    between atoms: C_5  and  C_7
REMARK    6  A    between atoms: C_6  and  C_8
REMARK    7  A    between atoms: C_7  and  C_9
REMARK    8  A    between atoms: C_9  and  C_10
REMARK                            x       y       z     vdW  Elec       q    Type
REMARK                         _______ _______ _______ _____ _____    ______ ____
ROOT
ATOM      1  C   UNL     1       4.937 -13.170  -0.032  0.00  0.00    +0.000 C 
ATOM      2  H   UNL     1       4.587 -12.298   0.534  0.00  0.00    +0.000 HD
ATOM      3  H   UNL     1       4.243 -13.296  -0.872  0.00  0.00    +0.000 HD
ENDROOT
BRANCH   1   4
ATOM      4  C   UNL     1       4.889 -14.415   0.858  0.00  0.00    +0.000 C 
ATOM      5  H   UNL     1       5.910 -14.743   1.086  0.00  0.00    +0.000 HD
ATOM      6  H   UNL     1       4.399 -15.233   0.316  0.00  0.00    +0.000 HD
BRANCH   4   7
ATOM      7  C   UNL     1       4.134 -14.138   2.160  0.00  0.00    +0.000 C 
ATOM      8  H   UNL     1       3.215 -14.736   2.188  0.00  0.00    +0.000 HD
ATOM      9  H   UNL     1       4.748 -14.449   3.014  0.00  0.00    +0.000 HD
BRANCH   7  10
ATOM     10  C   UNL     1       3.787 -12.655   2.295  0.00  0.00    +0.000 C 
ATOM     11  H   UNL     1       4.513 -12.161   2.951  0.00  0.00    +0.000 HD
ATOM     12  H   UNL     1       3.849 -12.168   1.315  0.00  0.00    +0.000 HD
BRANCH  10  13
ATOM     13  C   UNL     1       2.390 -12.459   2.864  0.00  0.00    +0.000 C 
ATOM     14  H   UNL     1       2.324 -12.898   3.865  0.00  0.00    +0.000 HD
ATOM     15  H   UNL     1       2.145 -11.395   2.943  0.00  0.00    +0.000 HD
ATOM     16  H   UNL     1       1.637 -12.940   2.232  0.00  0.00    +0.000 HD
ENDBRANCH  10  13
ENDBRANCH   7  10
ENDBRANCH   4   7
ENDBRANCH   1   4
BRANCH   1  17
ATOM     17  C   UNL     1       6.339 -12.894  -0.573  0.00  0.00    +0.000 C 
ATOM     18  H   UNL     1       6.930 -13.818  -0.554  0.00  0.00    +0.000 HD
ATOM     19  H   UNL     1       6.270 -12.549  -1.611  0.00  0.00    +0.000 HD
BRANCH  17  21
ATOM     20  O   UNL     1       6.998 -11.718   1.429  0.00  0.00    +0.000 OA
ATOM     21  C   UNL     1       7.104 -11.838   0.210  0.00  0.00    +0.000 C 
BRANCH  21  22
ATOM     22  C   UNL     1       7.979 -10.913  -0.620  0.00  0.00    +0.000 C 
ATOM     23  H   UNL     1       8.447 -10.188   0.053  0.00  0.00    +0.000 HD
ATOM     24  H   UNL     1       7.334 -10.373  -1.323  0.00  0.00    +0.000 HD
BRANCH  22  25
ATOM     25  C   UNL     1       9.055 -11.657  -1.391  0.00  0.00    +0.000 C 
ATOM     26  H   UNL     1       8.615 -12.420  -2.042  0.00  0.00    +0.000 HD
ATOM     27  H   UNL     1       9.745 -12.152  -0.702  0.00  0.00    +0.000 HD
ATOM     28  H   UNL     1       9.632 -10.972  -2.021  0.00  0.00    +0.000 HD
ENDBRANCH  22  25
ENDBRANCH  21  22
ENDBRANCH  17  21
ENDBRANCH   1  17
TORSDOF 8
ENDMDL
