MODEL 1
REMARK VINA RESULT:    -4.301      0.000      0.000
REMARK INTER + INTRA:          -5.919
REMARK INTER:                  -5.661
REMARK INTRA:                  -0.258
REMARK UNBOUND:                -0.109
REMARK  Name = 246728
REMARK  7 active torsions:
REMARK  status: ('A' for Active; 'I' for Inactive)
REMARK    1  A    between atoms: C_2  and  C_3
REMARK    2  A    between atoms: C_2  and  C_4
REMARK    3  A    between atoms: C_3  and  C_5
REMARK    4  A    between atoms: C_4  and  C_6
REMARK    5  A    between atoms: C_5  and  C_8
REMARK    6  A    between atoms: C_6  and  C_7
REMARK    7  A    between atoms: C_7  and  C_9
REMARK                            x       y       z     vdW  Elec       q    Type
REMARK                         _______ _______ _______ _____ _____    ______ ____
ROOT
ATOM      1  C   UNL     1       6.333  -2.935  -2.637  0.00  0.00    +0.000 C 
ATOM      2  H   UNL     1       6.475  -2.152  -3.391  0.00  0.00    +0.000 HD
ATOM      3  H   UNL     1       6.749  -3.858  -3.063  0.00  0.00    +0.000 HD
ENDROOT
BRANCH   1   4
ATOM      4  C   UNL     1       4.838  -3.130  -2.368  0.00  0.00    +0.000 C 
ATOM      5  H   UNL     1       4.255  -2.595  -3.127  0.00  0.00    +0.000 HD
ATOM      6  H   UNL     1       4.587  -4.194  -2.458  0.00  0.00    +0.000 HD
BRANCH   4   7
ATOM      7  C   UNL     1       4.456  -2.629  -0.974  0.00  0.00    +0.000 C 
ATOM      8  H   UNL     1       5.041  -1.734  -0.727  0.00  0.00    +0.000 HD
ATOM      9  H   UNL     1       4.698  -3.391  -0.224  0.00  0.00    +0.000 HD
BRANCH   7  10
ATOM     10  C   UNL     1       2.975  -2.298  -0.889  0.00  0.00    +0.000 C 
ATOM     11  H   UNL     1       2.381  -3.114  -1.315  0.00  0.00    +0.000 HD
ATOM     12  H   UNL     1       2.663  -2.157   0.151  0.00  0.00    +0.000 HD
ATOM     13  H   UNL     1       2.743  -1.384  -1.445  0.00  0.00    +0.000 HD
ENDBRANCH   7  10
ENDBRANCH   4   7
ENDBRANCH   1   4
BRANCH   1  14
ATOM     14  C   UNL     1       7.109  -2.564  -1.373  0.00  0.00    +0.000 C 
ATOM     15  H   UNL     1       7.613  -1.602  -1.519  0.00  0.00    +0.000 HD
ATOM     16  H   UNL     1       6.412  -2.466  -0.534  0.00  0.00    +0.000 HD
BRANCH  14  18
ATOM     17  O   UNL     1       7.878  -4.652  -0.432  0.00  0.00    +0.000 OA
ATOM     18  C   UNL     1       8.165  -3.586  -0.976  0.00  0.00    +0.000 C 
BRANCH  18  19
ATOM     19  C   UNL     1       9.603  -3.186  -1.263  0.00  0.00    +0.000 C 
ATOM     20  H   UNL     1      10.204  -3.416  -0.378  0.00  0.00    +0.000 HD
ATOM     21  H   UNL     1       9.965  -3.790  -2.101  0.00  0.00    +0.000 HD
BRANCH  19  22
ATOM     22  C   UNL     1       9.745  -1.713  -1.604  0.00  0.00    +0.000 C 
ATOM     23  H   UNL     1       8.829  -1.163  -1.362  0.00  0.00    +0.000 HD
ATOM     24  H   UNL     1       9.946  -1.574  -2.673  0.00  0.00    +0.000 HD
ATOM     25  H   UNL     1      10.570  -1.268  -1.041  0.00  0.00    +0.000 HD
ENDBRANCH  19  22
ENDBRANCH  18  19
ENDBRANCH  14  18
ENDBRANCH   1  14
TORSDOF 7
ENDMDL
MODEL 2
REMARK VINA RESULT:    -4.278     17.527     18.935
REMARK INTER + INTRA:          -5.888
REMARK INTER:                  -5.774
REMARK INTRA:                  -0.114
REMARK UNBOUND:                -0.109
REMARK  Name = 246728
REMARK  7 active torsions:
REMARK  status: ('A' for Active; 'I' for Inactive)
REMARK    1  A    between atoms: C_2  and  C_3
REMARK    2  A    between atoms: C_2  and  C_4
REMARK    3  A    between atoms: C_3  and  C_5
REMARK    4  A    between atoms: C_4  and  C_6
REMARK    5  A    between atoms: C_5  and  C_8
REMARK    6  A    between atoms: C_6  and  C_7
REMARK    7  A    between atoms: C_7  and  C_9
REMARK                            x       y       z     vdW  Elec       q    Type
REMARK                         _______ _______ _______ _____ _____    ______ ____
ROOT
ATOM      1  C   UNL     1       0.869  -4.956  14.972  0.00  0.00    +0.000 C 
ATOM      2  H   UNL     1       1.725  -5.565  14.656  0.00  0.00    +0.000 HD
ATOM      3  H   UNL     1       0.240  -4.816  14.083  0.00  0.00    +0.000 HD
ENDROOT
BRANCH   1   4
ATOM      4  C   UNL     1       1.360  -3.592  15.466  0.00  0.00    +0.000 C 
ATOM      5  H   UNL     1       1.093  -2.818  14.736  0.00  0.00    +0.000 HD
ATOM      6  H   UNL     1       0.851  -3.340  16.405  0.00  0.00    +0.000 HD
BRANCH   4   7
ATOM      7  C   UNL     1       2.873  -3.594  15.687  0.00  0.00    +0.000 C 
ATOM      8  H   UNL     1       3.279  -4.589  15.468  0.00  0.00    +0.000 HD
ATOM      9  H   UNL     1       3.097  -3.376  16.738  0.00  0.00    +0.000 HD
BRANCH   7  10
ATOM     10  C   UNL     1       3.565  -2.566  14.807  0.00  0.00    +0.000 C 
ATOM     11  H   UNL     1       3.755  -1.649  15.375  0.00  0.00    +0.000 HD
ATOM     12  H   UNL     1       4.524  -2.945  14.441  0.00  0.00    +0.000 HD
ATOM     13  H   UNL     1       2.944  -2.307  13.943  0.00  0.00    +0.000 HD
ENDBRANCH   7  10
ENDBRANCH   4   7
ENDBRANCH   1   4
BRANCH   1  14
ATOM     14  C   UNL     1       0.079  -5.713  16.039  0.00  0.00    +0.000 C 
ATOM     15  H   UNL     1       0.340  -5.330  17.032  0.00  0.00    +0.000 HD
ATOM     16  H   UNL     1      -0.993  -5.554  15.879  0.00  0.00    +0.000 HD
BRANCH  14  18
ATOM     17  O   UNL     1       1.080  -7.758  15.235  0.00  0.00    +0.000 OA
ATOM     18  C   UNL     1       0.325  -7.215  16.040  0.00  0.00    +0.000 C 
BRANCH  18  19
ATOM     19  C   UNL     1      -0.453  -8.004  17.080  0.00  0.00    +0.000 C 
ATOM     20  H   UNL     1      -1.520  -7.814  16.925  0.00  0.00    +0.000 HD
ATOM     21  H   UNL     1      -0.258  -9.069  16.918  0.00  0.00    +0.000 HD
BRANCH  19  22
ATOM     22  C   UNL     1      -0.074  -7.633  18.503  0.00  0.00    +0.000 C 
ATOM     23  H   UNL     1       0.996  -7.411  18.580  0.00  0.00    +0.000 HD
ATOM     24  H   UNL     1      -0.296  -8.452  19.196  0.00  0.00    +0.000 HD
ATOM     25  H   UNL     1      -0.631  -6.750  18.828  0.00  0.00    +0.000 HD
ENDBRANCH  19  22
ENDBRANCH  18  19
ENDBRANCH  14  18
ENDBRANCH   1  14
TORSDOF 7
ENDMDL
MODEL 3
REMARK VINA RESULT:    -4.065      1.772      2.012
REMARK INTER + INTRA:          -5.601
REMARK INTER:                  -5.331
REMARK INTRA:                  -0.269
REMARK UNBOUND:                -0.109
REMARK  Name = 246728
REMARK  7 active torsions:
REMARK  status: ('A' for Active; 'I' for Inactive)
REMARK    1  A    between atoms: C_2  and  C_3
REMARK    2  A    between atoms: C_2  and  C_4
REMARK    3  A    between atoms: C_3  and  C_5
REMARK    4  A    between atoms: C_4  and  C_6
REMARK    5  A    between atoms: C_5  and  C_8
REMARK    6  A    between atoms: C_6  and  C_7
REMARK    7  A    between atoms: C_7  and  C_9
REMARK                            x       y       z     vdW  Elec       q    Type
REMARK                         _______ _______ _______ _____ _____    ______ ____
ROOT
ATOM      1  C   UNL     1       6.429  -2.770  -0.705  0.00  0.00    +0.000 C 
ATOM      2  H   UNL     1       5.630  -2.480  -1.398  0.00  0.00    +0.000 HD
ATOM      3  H   UNL     1       6.999  -3.566  -1.202  0.00  0.00    +0.000 HD
ENDROOT
BRANCH   1   4
ATOM      4  C   UNL     1       5.819  -3.314   0.590  0.00  0.00    +0.000 C 
ATOM      5  H   UNL     1       6.302  -4.263   0.854  0.00  0.00    +0.000 HD
ATOM      6  H   UNL     1       6.016  -2.611   1.409  0.00  0.00    +0.000 HD
BRANCH   4   7
ATOM      7  C   UNL     1       4.311  -3.524   0.446  0.00  0.00    +0.000 C 
ATOM      8  H   UNL     1       3.805  -3.239   1.376  0.00  0.00    +0.000 HD
ATOM      9  H   UNL     1       4.096  -4.585   0.273  0.00  0.00    +0.000 HD
BRANCH   7  10
ATOM     10  C   UNL     1       3.744  -2.708  -0.704  0.00  0.00    +0.000 C 
ATOM     11  H   UNL     1       3.093  -3.331  -1.326  0.00  0.00    +0.000 HD
ATOM     12  H   UNL     1       3.152  -1.864  -0.332  0.00  0.00    +0.000 HD
ATOM     13  H   UNL     1       4.544  -2.313  -1.339  0.00  0.00    +0.000 HD
ENDBRANCH   7  10
ENDBRANCH   4   7
ENDBRANCH   1   4
BRANCH   1  14
ATOM     14  C   UNL     1       7.343  -1.569  -0.459  0.00  0.00    +0.000 C 
ATOM     15  H   UNL     1       7.482  -1.014  -1.394  0.00  0.00    +0.000 HD
ATOM     16  H   UNL     1       6.876  -0.901   0.273  0.00  0.00    +0.000 HD
BRANCH  14  18
ATOM     17  O   UNL     1       9.030  -1.803   1.253  0.00  0.00    +0.000 OA
ATOM     18  C   UNL     1       8.720  -1.941   0.070  0.00  0.00    +0.000 C 
BRANCH  18  19
ATOM     19  C   UNL     1       9.702  -2.459  -0.968  0.00  0.00    +0.000 C 
ATOM     20  H   UNL     1      10.702  -2.460  -0.523  0.00  0.00    +0.000 HD
ATOM     21  H   UNL     1       9.426  -3.490  -1.213  0.00  0.00    +0.000 HD
BRANCH  19  22
ATOM     22  C   UNL     1       9.711  -1.624  -2.236  0.00  0.00    +0.000 C 
ATOM     23  H   UNL     1       8.959  -1.981  -2.948  0.00  0.00    +0.000 HD
ATOM     24  H   UNL     1      10.688  -1.669  -2.730  0.00  0.00    +0.000 HD
ATOM     25  H   UNL     1       9.493  -0.577  -2.005  0.00  0.00    +0.000 HD
ENDBRANCH  19  22
ENDBRANCH  18  19
ENDBRANCH  14  18
ENDBRANCH   1  14
TORSDOF 7
ENDMDL
MODEL 4
REMARK VINA RESULT:    -4.047     17.597     18.692
REMARK INTER + INTRA:          -5.576
REMARK INTER:                  -5.359
REMARK INTRA:                  -0.217
REMARK UNBOUND:                -0.109
REMARK  Name = 246728
REMARK  7 active torsions:
REMARK  status: ('A' for Active; 'I' for Inactive)
REMARK    1  A    between atoms: C_2  and  C_3
REMARK    2  A    between atoms: C_2  and  C_4
REMARK    3  A    between atoms: C_3  and  C_5
REMARK    4  A    between atoms: C_4  and  C_6
REMARK    5  A    between atoms: C_5  and  C_8
REMARK    6  A    between atoms: C_6  and  C_7
REMARK    7  A    between atoms: C_7  and  C_9
REMARK                            x       y       z     vdW  Elec       q    Type
REMARK                         _______ _______ _______ _____ _____    ______ ____
ROOT
ATOM      1  C   UNL     1       0.264  -6.011  15.338  0.00  0.00    +0.000 C 
ATOM      2  H   UNL     1       0.070  -5.006  14.944  0.00  0.00    +0.000 HD
ATOM      3  H   UNL     1      -0.098  -6.718  14.581  0.00  0.00    +0.000 HD
ENDROOT
BRANCH   1   4
ATOM      4  C   UNL     1      -0.519  -6.216  16.639  0.00  0.00    +0.000 C 
ATOM      5  H   UNL     1      -0.126  -5.546  17.414  0.00  0.00    +0.000 HD
ATOM      6  H   UNL     1      -1.570  -5.945  16.479  0.00  0.00    +0.000 HD
BRANCH   4   7
ATOM      7  C   UNL     1      -0.430  -7.666  17.116  0.00  0.00    +0.000 C 
ATOM      8  H   UNL     1       0.359  -8.192  16.564  0.00  0.00    +0.000 HD
ATOM      9  H   UNL     1      -1.372  -8.186  16.908  0.00  0.00    +0.000 HD
BRANCH   7  10
ATOM     10  C   UNL     1      -0.136  -7.744  18.606  0.00  0.00    +0.000 C 
ATOM     11  H   UNL     1       0.945  -7.757  18.778  0.00  0.00    +0.000 HD
ATOM     12  H   UNL     1      -0.555  -6.881  19.134  0.00  0.00    +0.000 HD
ATOM     13  H   UNL     1      -0.560  -8.654  19.043  0.00  0.00    +0.000 HD
ENDBRANCH   7  10
ENDBRANCH   4   7
ENDBRANCH   1   4
BRANCH   1  14
ATOM     14  C   UNL     1       1.769  -6.196  15.529  0.00  0.00    +0.000 C 
ATOM     15  H   UNL     1       1.954  -6.859  16.382  0.00  0.00    +0.000 HD
ATOM     16  H   UNL     1       2.195  -6.661  14.633  0.00  0.00    +0.000 HD
BRANCH  14  18
ATOM     17  O   UNL     1       3.165  -4.696  16.807  0.00  0.00    +0.000 OA
ATOM     18  C   UNL     1       2.524  -4.898  15.777  0.00  0.00    +0.000 C 
BRANCH  18  19
ATOM     19  C   UNL     1       2.404  -3.853  14.680  0.00  0.00    +0.000 C 
ATOM     20  H   UNL     1       2.585  -4.344  13.719  0.00  0.00    +0.000 HD
ATOM     21  H   UNL     1       1.380  -3.464  14.689  0.00  0.00    +0.000 HD
BRANCH  19  22
ATOM     22  C   UNL     1       3.381  -2.704  14.854  0.00  0.00    +0.000 C 
ATOM     23  H   UNL     1       4.205  -2.986  15.519  0.00  0.00    +0.000 HD
ATOM     24  H   UNL     1       2.886  -1.828  15.288  0.00  0.00    +0.000 HD
ATOM     25  H   UNL     1       3.805  -2.414  13.888  0.00  0.00    +0.000 HD
ENDBRANCH  19  22
ENDBRANCH  18  19
ENDBRANCH  14  18
ENDBRANCH   1  14
TORSDOF 7
ENDMDL
MODEL 5
REMARK VINA RESULT:    -4.046     18.731     20.090
REMARK INTER + INTRA:          -5.574
REMARK INTER:                  -5.287
REMARK INTRA:                  -0.287
REMARK UNBOUND:                -0.109
REMARK  Name = 246728
REMARK  7 active torsions:
REMARK  status: ('A' for Active; 'I' for Inactive)
REMARK    1  A    between atoms: C_2  and  C_3
REMARK    2  A    between atoms: C_2  and  C_4
REMARK    3  A    between atoms: C_3  and  C_5
REMARK    4  A    between atoms: C_4  and  C_6
REMARK    5  A    between atoms: C_5  and  C_8
REMARK    6  A    between atoms: C_6  and  C_7
REMARK    7  A    between atoms: C_7  and  C_9
REMARK                            x       y       z     vdW  Elec       q    Type
REMARK                         _______ _______ _______ _____ _____    ______ ____
ROOT
ATOM      1  C   UNL     1      -0.346  -6.894  15.694  0.00  0.00    +0.000 C 
ATOM      2  H   UNL     1       0.020  -7.915  15.532  0.00  0.00    +0.000 HD
ATOM      3  H   UNL     1      -1.324  -6.831  15.199  0.00  0.00    +0.000 HD
ENDROOT
BRANCH   1   4
ATOM      4  C   UNL     1       0.615  -5.891  15.049  0.00  0.00    +0.000 C 
ATOM      5  H   UNL     1       1.583  -6.373  14.868  0.00  0.00    +0.000 HD
ATOM      6  H   UNL     1       0.219  -5.582  14.073  0.00  0.00    +0.000 HD
BRANCH   4   7
ATOM      7  C   UNL     1       0.809  -4.660  15.936  0.00  0.00    +0.000 C 
ATOM      8  H   UNL     1       1.372  -4.936  16.836  0.00  0.00    +0.000 HD
ATOM      9  H   UNL     1      -0.164  -4.280  16.266  0.00  0.00    +0.000 HD
BRANCH   7  10
ATOM     10  C   UNL     1       1.551  -3.556  15.200  0.00  0.00    +0.000 C 
ATOM     11  H   UNL     1       1.553  -2.638  15.797  0.00  0.00    +0.000 HD
ATOM     12  H   UNL     1       2.591  -3.841  15.010  0.00  0.00    +0.000 HD
ATOM     13  H   UNL     1       1.074  -3.334  14.240  0.00  0.00    +0.000 HD
ENDBRANCH   7  10
ENDBRANCH   4   7
ENDBRANCH   1   4
BRANCH   1  14
ATOM     14  C   UNL     1      -0.519  -6.653  17.194  0.00  0.00    +0.000 C 
ATOM     15  H   UNL     1       0.084  -5.791  17.500  0.00  0.00    +0.000 HD
ATOM     16  H   UNL     1      -1.571  -6.432  17.408  0.00  0.00    +0.000 HD
BRANCH  14  18
ATOM     17  O   UNL     1      -0.175  -7.806  19.288  0.00  0.00    +0.000 OA
ATOM     18  C   UNL     1      -0.112  -7.836  18.060  0.00  0.00    +0.000 C 
BRANCH  18  19
ATOM     19  C   UNL     1       0.411  -9.048  17.306  0.00  0.00    +0.000 C 
ATOM     20  H   UNL     1       0.348  -8.837  16.234  0.00  0.00    +0.000 HD
ATOM     21  H   UNL     1       1.463  -9.190  17.574  0.00  0.00    +0.000 HD
BRANCH  19  22
ATOM     22  C   UNL     1      -0.365 -10.315  17.620  0.00  0.00    +0.000 C 
ATOM     23  H   UNL     1      -0.374 -10.994  16.760  0.00  0.00    +0.000 HD
ATOM     24  H   UNL     1      -1.406 -10.085  17.876  0.00  0.00    +0.000 HD
ATOM     25  H   UNL     1       0.087 -10.840  18.466  0.00  0.00    +0.000 HD
ENDBRANCH  19  22
ENDBRANCH  18  19
ENDBRANCH  14  18
ENDBRANCH   1  14
TORSDOF 7
ENDMDL
MODEL 6
REMARK VINA RESULT:    -3.853      7.909      9.608
REMARK INTER + INTRA:          -5.315
REMARK INTER:                  -5.185
REMARK INTRA:                  -0.130
REMARK UNBOUND:                -0.109
REMARK  Name = 246728
REMARK  7 active torsions:
REMARK  status: ('A' for Active; 'I' for Inactive)
REMARK    1  A    between atoms: C_2  and  C_3
REMARK    2  A    between atoms: C_2  and  C_4
REMARK    3  A    between atoms: C_3  and  C_5
REMARK    4  A    between atoms: C_4  and  C_6
REMARK    5  A    between atoms: C_5  and  C_8
REMARK    6  A    between atoms: C_6  and  C_7
REMARK    7  A    between atoms: C_7  and  C_9
REMARK                            x       y       z     vdW  Elec       q    Type
REMARK                         _______ _______ _______ _____ _____    ______ ____
ROOT
ATOM      1  C   UNL     1       9.796 -10.586  -1.324  0.00  0.00    +0.000 C 
ATOM      2  H   UNL     1      10.379 -11.407  -0.890  0.00  0.00    +0.000 HD
ATOM      3  H   UNL     1       9.558 -10.883  -2.354  0.00  0.00    +0.000 HD
ENDROOT
BRANCH   1   4
ATOM      4  C   UNL     1      10.641  -9.308  -1.347  0.00  0.00    +0.000 C 
ATOM      5  H   UNL     1       9.992  -8.441  -1.522  0.00  0.00    +0.000 HD
ATOM      6  H   UNL     1      11.114  -9.166  -0.368  0.00  0.00    +0.000 HD
BRANCH   4   7
ATOM      7  C   UNL     1      11.717  -9.375  -2.432  0.00  0.00    +0.000 C 
ATOM      8  H   UNL     1      12.706  -9.214  -1.986  0.00  0.00    +0.000 HD
ATOM      9  H   UNL     1      11.558  -8.577  -3.166  0.00  0.00    +0.000 HD
BRANCH   7  10
ATOM     10  C   UNL     1      11.703 -10.717  -3.146  0.00  0.00    +0.000 C 
ATOM     11  H   UNL     1      10.698 -11.151  -3.116  0.00  0.00    +0.000 HD
ATOM     12  H   UNL     1      11.995 -10.607  -4.196  0.00  0.00    +0.000 HD
ATOM     13  H   UNL     1      12.391 -11.423  -2.670  0.00  0.00    +0.000 HD
ENDBRANCH   7  10
ENDBRANCH   4   7
ENDBRANCH   1   4
BRANCH   1  14
ATOM     14  C   UNL     1       8.500 -10.413  -0.532  0.00  0.00    +0.000 C 
ATOM     15  H   UNL     1       8.700  -9.839   0.380  0.00  0.00    +0.000 HD
ATOM     16  H   UNL     1       7.775  -9.858  -1.137  0.00  0.00    +0.000 HD
BRANCH  14  18
ATOM     17  O   UNL     1       8.467 -12.615   0.461  0.00  0.00    +0.000 OA
ATOM     18  C   UNL     1       7.848 -11.726  -0.123  0.00  0.00    +0.000 C 
BRANCH  18  19
ATOM     19  C   UNL     1       6.388 -11.881  -0.517  0.00  0.00    +0.000 C 
ATOM     20  H   UNL     1       5.785 -11.267   0.160  0.00  0.00    +0.000 HD
ATOM     21  H   UNL     1       6.267 -11.502  -1.536  0.00  0.00    +0.000 HD
BRANCH  19  22
ATOM     22  C   UNL     1       5.913 -13.322  -0.454  0.00  0.00    +0.000 C 
ATOM     23  H   UNL     1       6.451 -13.880   0.320  0.00  0.00    +0.000 HD
ATOM     24  H   UNL     1       6.077 -13.832  -1.410  0.00  0.00    +0.000 HD
ATOM     25  H   UNL     1       4.845 -13.362  -0.223  0.00  0.00    +0.000 HD
ENDBRANCH  19  22
ENDBRANCH  18  19
ENDBRANCH  14  18
ENDBRANCH   1  14
TORSDOF 7
ENDMDL
MODEL 7
REMARK VINA RESULT:    -3.827     15.709     17.897
REMARK INTER + INTRA:          -5.278
REMARK INTER:                  -5.079
REMARK INTRA:                  -0.199
REMARK UNBOUND:                -0.109
REMARK  Name = 246728
REMARK  7 active torsions:
REMARK  status: ('A' for Active; 'I' for Inactive)
REMARK    1  A    between atoms: C_2  and  C_3
REMARK    2  A    between atoms: C_2  and  C_4
REMARK    3  A    between atoms: C_3  and  C_5
REMARK    4  A    between atoms: C_4  and  C_6
REMARK    5  A    between atoms: C_5  and  C_8
REMARK    6  A    between atoms: C_6  and  C_7
REMARK    7  A    between atoms: C_7  and  C_9
REMARK                            x       y       z     vdW  Elec       q    Type
REMARK                         _______ _______ _______ _____ _____    ______ ____
ROOT
ATOM      1  C   UNL     1      -5.781 -12.721   5.191  0.00  0.00    +0.000 C 
ATOM      2  H   UNL     1      -4.885 -12.949   4.601  0.00  0.00    +0.000 HD
ATOM      3  H   UNL     1      -5.632 -11.715   5.607  0.00  0.00    +0.000 HD
ENDROOT
BRANCH   1   4
ATOM      4  C   UNL     1      -5.917 -13.728   6.337  0.00  0.00    +0.000 C 
ATOM      5  H   UNL     1      -5.925 -14.747   5.931  0.00  0.00    +0.000 HD
ATOM      6  H   UNL     1      -5.045 -13.649   6.998  0.00  0.00    +0.000 HD
BRANCH   4   7
ATOM      7  C   UNL     1      -7.194 -13.483   7.142  0.00  0.00    +0.000 C 
ATOM      8  H   UNL     1      -7.782 -12.684   6.673  0.00  0.00    +0.000 HD
ATOM      9  H   UNL     1      -6.940 -13.147   8.153  0.00  0.00    +0.000 HD
BRANCH   7  10
ATOM     10  C   UNL     1      -8.043 -14.741   7.233  0.00  0.00    +0.000 C 
ATOM     11  H   UNL     1      -8.846 -14.602   7.965  0.00  0.00    +0.000 HD
ATOM     12  H   UNL     1      -8.500 -14.977   6.267  0.00  0.00    +0.000 HD
ATOM     13  H   UNL     1      -7.442 -15.599   7.549  0.00  0.00    +0.000 HD
ENDBRANCH   7  10
ENDBRANCH   4   7
ENDBRANCH   1   4
BRANCH   1  14
ATOM     14  C   UNL     1      -7.003 -12.715   4.273  0.00  0.00    +0.000 C 
ATOM     15  H   UNL     1      -7.625 -13.593   4.480  0.00  0.00    +0.000 HD
ATOM     16  H   UNL     1      -7.599 -11.816   4.466  0.00  0.00    +0.000 HD
BRANCH  14  18
ATOM     17  O   UNL     1      -7.322 -13.358   1.966  0.00  0.00    +0.000 OA
ATOM     18  C   UNL     1      -6.659 -12.728   2.790  0.00  0.00    +0.000 C 
BRANCH  18  19
ATOM     19  C   UNL     1      -5.420 -11.941   2.399  0.00  0.00    +0.000 C 
ATOM     20  H   UNL     1      -5.634 -10.876   2.538  0.00  0.00    +0.000 HD
ATOM     21  H   UNL     1      -4.606 -12.227   3.073  0.00  0.00    +0.000 HD
BRANCH  19  22
ATOM     22  C   UNL     1      -4.996 -12.189   0.962  0.00  0.00    +0.000 C 
ATOM     23  H   UNL     1      -4.318 -13.047   0.895  0.00  0.00    +0.000 HD
ATOM     24  H   UNL     1      -4.475 -11.317   0.550  0.00  0.00    +0.000 HD
ATOM     25  H   UNL     1      -5.869 -12.393   0.336  0.00  0.00    +0.000 HD
ENDBRANCH  19  22
ENDBRANCH  18  19
ENDBRANCH  14  18
ENDBRANCH   1  14
TORSDOF 7
ENDMDL
MODEL 8
REMARK VINA RESULT:    -3.712      7.673      8.622
REMARK INTER + INTRA:          -5.124
REMARK INTER:                  -4.867
REMARK INTRA:                  -0.257
REMARK UNBOUND:                -0.109
REMARK  Name = 246728
REMARK  7 active torsions:
REMARK  status: ('A' for Active; 'I' for Inactive)
REMARK    1  A    between atoms: C_2  and  C_3
REMARK    2  A    between atoms: C_2  and  C_4
REMARK    3  A    between atoms: C_3  and  C_5
REMARK    4  A    between atoms: C_4  and  C_6
REMARK    5  A    between atoms: C_5  and  C_8
REMARK    6  A    between atoms: C_6  and  C_7
REMARK    7  A    between atoms: C_7  and  C_9
REMARK                            x       y       z     vdW  Elec       q    Type
REMARK                         _______ _______ _______ _____ _____    ______ ____
ROOT
ATOM      1  C   UNL     1      11.436  -9.123  -2.028  0.00  0.00    +0.000 C 
ATOM      2  H   UNL     1      12.433  -8.952  -1.604  0.00  0.00    +0.000 HD
ATOM      3  H   UNL     1      11.297  -8.368  -2.813  0.00  0.00    +0.000 HD
ENDROOT
BRANCH   1   4
ATOM      4  C   UNL     1      10.373  -8.932  -0.943  0.00  0.00    +0.000 C 
ATOM      5  H   UNL     1      10.825  -8.458  -0.064  0.00  0.00    +0.000 HD
ATOM      6  H   UNL     1       9.594  -8.253  -1.312  0.00  0.00    +0.000 HD
BRANCH   4   7
ATOM      7  C   UNL     1       9.742 -10.267  -0.544  0.00  0.00    +0.000 C 
ATOM      8  H   UNL     1      10.201 -10.632   0.383  0.00  0.00    +0.000 HD
ATOM      9  H   UNL     1       9.934 -11.017  -1.319  0.00  0.00    +0.000 HD
BRANCH   7  10
ATOM     10  C   UNL     1       8.241 -10.134  -0.341  0.00  0.00    +0.000 C 
ATOM     11  H   UNL     1       7.757 -11.109  -0.453  0.00  0.00    +0.000 HD
ATOM     12  H   UNL     1       8.013  -9.752   0.659  0.00  0.00    +0.000 HD
ATOM     13  H   UNL     1       7.804  -9.452  -1.078  0.00  0.00    +0.000 HD
ENDBRANCH   7  10
ENDBRANCH   4   7
ENDBRANCH   1   4
BRANCH   1  14
ATOM     14  C   UNL     1      11.388 -10.518  -2.652  0.00  0.00    +0.000 C 
ATOM     15  H   UNL     1      12.126 -11.166  -2.166  0.00  0.00    +0.000 HD
ATOM     16  H   UNL     1      10.393 -10.951  -2.497  0.00  0.00    +0.000 HD
BRANCH  14  18
ATOM     17  O   UNL     1      11.318 -11.465  -4.873  0.00  0.00    +0.000 OA
ATOM     18  C   UNL     1      11.667 -10.535  -4.148  0.00  0.00    +0.000 C 
BRANCH  18  19
ATOM     19  C   UNL     1      12.441  -9.340  -4.682  0.00  0.00    +0.000 C 
ATOM     20  H   UNL     1      12.469  -8.575  -3.899  0.00  0.00    +0.000 HD
ATOM     21  H   UNL     1      13.465  -9.663  -4.894  0.00  0.00    +0.000 HD
BRANCH  19  22
ATOM     22  C   UNL     1      11.824  -8.756  -5.940  0.00  0.00    +0.000 C 
ATOM     23  H   UNL     1      11.401  -9.544  -6.573  0.00  0.00    +0.000 HD
ATOM     24  H   UNL     1      12.573  -8.218  -6.532  0.00  0.00    +0.000 HD
ATOM     25  H   UNL     1      11.024  -8.056  -5.684  0.00  0.00    +0.000 HD
ENDBRANCH  19  22
ENDBRANCH  18  19
ENDBRANCH  14  18
ENDBRANCH   1  14
TORSDOF 7
ENDMDL
MODEL 9
REMARK VINA RESULT:    -3.704     13.709     14.792
REMARK INTER + INTRA:          -5.113
REMARK INTER:                  -4.844
REMARK INTRA:                  -0.269
REMARK UNBOUND:                -0.109
REMARK  Name = 246728
REMARK  7 active torsions:
REMARK  status: ('A' for Active; 'I' for Inactive)
REMARK    1  A    between atoms: C_2  and  C_3
REMARK    2  A    between atoms: C_2  and  C_4
REMARK    3  A    between atoms: C_3  and  C_5
REMARK    4  A    between atoms: C_4  and  C_6
REMARK    5  A    between atoms: C_5  and  C_8
REMARK    6  A    between atoms: C_6  and  C_7
REMARK    7  A    between atoms: C_7  and  C_9
REMARK                            x       y       z     vdW  Elec       q    Type
REMARK                         _______ _______ _______ _____ _____    ______ ____
ROOT
ATOM      1  C   UNL     1      -5.953  -6.354  -9.666  0.00  0.00    +0.000 C 
ATOM      2  H   UNL     1      -5.552  -5.502 -10.229  0.00  0.00    +0.000 HD
ATOM      3  H   UNL     1      -6.954  -6.552 -10.072  0.00  0.00    +0.000 HD
ENDROOT
BRANCH   1   4
ATOM      4  C   UNL     1      -6.071  -5.985  -8.184  0.00  0.00    +0.000 C 
ATOM      5  H   UNL     1      -5.312  -6.528  -7.608  0.00  0.00    +0.000 HD
ATOM      6  H   UNL     1      -5.869  -4.914  -8.058  0.00  0.00    +0.000 HD
BRANCH   4   7
ATOM      7  C   UNL     1      -7.463  -6.312  -7.641  0.00  0.00    +0.000 C 
ATOM      8  H   UNL     1      -7.391  -6.605  -6.586  0.00  0.00    +0.000 HD
ATOM      9  H   UNL     1      -7.886  -7.164  -8.186  0.00  0.00    +0.000 HD
BRANCH   7  10
ATOM     10  C   UNL     1      -8.402  -5.123  -7.768  0.00  0.00    +0.000 C 
ATOM     11  H   UNL     1      -9.084  -5.087  -6.912  0.00  0.00    +0.000 HD
ATOM     12  H   UNL     1      -7.843  -4.183  -7.797  0.00  0.00    +0.000 HD
ATOM     13  H   UNL     1      -9.005  -5.194  -8.679  0.00  0.00    +0.000 HD
ENDBRANCH   7  10
ENDBRANCH   4   7
ENDBRANCH   1   4
BRANCH   1  14
ATOM     14  C   UNL     1      -5.061  -7.574  -9.894  0.00  0.00    +0.000 C 
ATOM     15  H   UNL     1      -5.398  -8.401  -9.258  0.00  0.00    +0.000 HD
ATOM     16  H   UNL     1      -5.137  -7.890 -10.940  0.00  0.00    +0.000 HD
BRANCH  14  18
ATOM     17  O   UNL     1      -3.037  -6.257  -9.847  0.00  0.00    +0.000 OA
ATOM     18  C   UNL     1      -3.590  -7.327  -9.594  0.00  0.00    +0.000 C 
BRANCH  18  19
ATOM     19  C   UNL     1      -2.839  -8.504  -8.992  0.00  0.00    +0.000 C 
ATOM     20  H   UNL     1      -2.345  -9.045  -9.806  0.00  0.00    +0.000 HD
ATOM     21  H   UNL     1      -2.074  -8.111  -8.315  0.00  0.00    +0.000 HD
BRANCH  19  22
ATOM     22  C   UNL     1      -3.748  -9.452  -8.231  0.00  0.00    +0.000 C 
ATOM     23  H   UNL     1      -4.409  -9.996  -8.913  0.00  0.00    +0.000 HD
ATOM     24  H   UNL     1      -4.377  -8.907  -7.518  0.00  0.00    +0.000 HD
ATOM     25  H   UNL     1      -3.155 -10.183  -7.673  0.00  0.00    +0.000 HD
ENDBRANCH  19  22
ENDBRANCH  18  19
ENDBRANCH  14  18
ENDBRANCH   1  14
TORSDOF 7
ENDMDL
MODEL 10
REMARK VINA RESULT:    -3.668     21.574     24.152
REMARK INTER + INTRA:          -5.064
REMARK INTER:                  -4.954
REMARK INTRA:                  -0.109
REMARK UNBOUND:                -0.109
REMARK  Name = 246728
REMARK  7 active torsions:
REMARK  status: ('A' for Active; 'I' for Inactive)
REMARK    1  A    between atoms: C_2  and  C_3
REMARK    2  A    between atoms: C_2  and  C_4
REMARK    3  A    between atoms: C_3  and  C_5
REMARK    4  A    between atoms: C_4  and  C_6
REMARK    5  A    between atoms: C_5  and  C_8
REMARK    6  A    between atoms: C_6  and  C_7
REMARK    7  A    between atoms: C_7  and  C_9
REMARK                            x       y       z     vdW  Elec       q    Type
REMARK                         _______ _______ _______ _____ _____    ______ ____
ROOT
ATOM      1  C   UNL     1     -10.722 -15.013   7.323  0.00  0.00    +0.000 C 
ATOM      2  H   UNL     1     -11.222 -15.148   6.357  0.00  0.00    +0.000 HD
ATOM      3  H   UNL     1     -10.804 -13.946   7.570  0.00  0.00    +0.000 HD
ENDROOT
BRANCH   1   4
ATOM      4  C   UNL     1      -9.244 -15.394   7.198  0.00  0.00    +0.000 C 
ATOM      5  H   UNL     1      -8.813 -15.531   8.198  0.00  0.00    +0.000 HD
ATOM      6  H   UNL     1      -9.157 -16.353   6.674  0.00  0.00    +0.000 HD
BRANCH   4   7
ATOM      7  C   UNL     1      -8.458 -14.322   6.440  0.00  0.00    +0.000 C 
ATOM      8  H   UNL     1      -9.129 -13.504   6.151  0.00  0.00    +0.000 HD
ATOM      9  H   UNL     1      -8.045 -14.744   5.517  0.00  0.00    +0.000 HD
BRANCH   7  10
ATOM     10  C   UNL     1      -7.323 -13.764   7.284  0.00  0.00    +0.000 C 
ATOM     11  H   UNL     1      -7.722 -13.127   8.080  0.00  0.00    +0.000 HD
ATOM     12  H   UNL     1      -6.748 -14.571   7.750  0.00  0.00    +0.000 HD
ATOM     13  H   UNL     1      -6.641 -13.161   6.676  0.00  0.00    +0.000 HD
ENDBRANCH   7  10
ENDBRANCH   4   7
ENDBRANCH   1   4
BRANCH   1  14
ATOM     14  C   UNL     1     -11.448 -15.837   8.386  0.00  0.00    +0.000 C 
ATOM     15  H   UNL     1     -11.378 -16.903   8.138  0.00  0.00    +0.000 HD
ATOM     16  H   UNL     1     -10.970 -15.678   9.359  0.00  0.00    +0.000 HD
BRANCH  14  18
ATOM     17  O   UNL     1     -13.811 -16.141   7.987  0.00  0.00    +0.000 OA
ATOM     18  C   UNL     1     -12.922 -15.490   8.536  0.00  0.00    +0.000 C 
BRANCH  18  19
ATOM     19  C   UNL     1     -13.222 -14.263   9.381  0.00  0.00    +0.000 C 
ATOM     20  H   UNL     1     -12.336 -14.038   9.983  0.00  0.00    +0.000 HD
ATOM     21  H   UNL     1     -13.411 -13.421   8.706  0.00  0.00    +0.000 HD
BRANCH  19  22
ATOM     22  C   UNL     1     -14.420 -14.457  10.293  0.00  0.00    +0.000 C 
ATOM     23  H   UNL     1     -15.351 -14.179   9.785  0.00  0.00    +0.000 HD
ATOM     24  H   UNL     1     -14.333 -13.839  11.194  0.00  0.00    +0.000 HD
ATOM     25  H   UNL     1     -14.499 -15.503  10.603  0.00  0.00    +0.000 HD
ENDBRANCH  19  22
ENDBRANCH  18  19
ENDBRANCH  14  18
ENDBRANCH   1  14
TORSDOF 7
ENDMDL
