MODEL 1
REMARK VINA RESULT:    -4.217      0.000      0.000
REMARK INTER + INTRA:          -5.955
REMARK INTER:                  -5.743
REMARK INTRA:                  -0.212
REMARK UNBOUND:                -0.135
REMARK  Name = 11527
REMARK  8 active torsions:
REMARK  status: ('A' for Active; 'I' for Inactive)
REMARK    1  A    between atoms: O_1  and  C_4
REMARK    2  A    between atoms: C_2  and  C_3
REMARK    3  A    between atoms: C_2  and  C_4
REMARK    4  A    between atoms: C_3  and  C_5
REMARK    5  A    between atoms: C_4  and  C_6
REMARK    6  A    between atoms: C_5  and  C_7
REMARK    7  A    between atoms: C_6  and  C_8
REMARK    8  A    between atoms: C_7  and  C_9
REMARK                            x       y       z     vdW  Elec       q    Type
REMARK                         _______ _______ _______ _____ _____    ______ ____
ROOT
ATOM      1  C   UNL     1       0.973  -5.301  14.759  0.00  0.00    +0.000 C 
ATOM      2  H   UNL     1       0.785  -6.320  14.396  0.00  0.00    +0.000 HD
ATOM      3  H   UNL     1       0.442  -4.642  14.059  0.00  0.00    +0.000 HD
ENDROOT
BRANCH   1   4
ATOM      4  C   UNL     1       0.380  -5.130  16.163  0.00  0.00    +0.000 C 
ATOM      5  H   UNL     1      -0.069  -4.134  16.255  0.00  0.00    +0.000 HD
ATOM      6  H   UNL     1       1.171  -5.204  16.918  0.00  0.00    +0.000 HD
BRANCH   4   7
ATOM      7  C   UNL     1      -0.677  -6.201  16.448  0.00  0.00    +0.000 C 
ATOM      8  H   UNL     1      -0.798  -6.835  15.561  0.00  0.00    +0.000 HD
ATOM      9  H   UNL     1      -1.644  -5.715  16.625  0.00  0.00    +0.000 HD
BRANCH   7  10
ATOM     10  C   UNL     1      -0.335  -7.085  17.650  0.00  0.00    +0.000 C 
ATOM     11  H   UNL     1       0.622  -6.764  18.076  0.00  0.00    +0.000 HD
ATOM     12  H   UNL     1      -1.093  -6.946  18.429  0.00  0.00    +0.000 HD
BRANCH  10  13
ATOM     13  C   UNL     1      -0.249  -8.565  17.308  0.00  0.00    +0.000 C 
ATOM     14  H   UNL     1      -1.161  -9.082  17.625  0.00  0.00    +0.000 HD
ATOM     15  H   UNL     1       0.601  -9.033  17.812  0.00  0.00    +0.000 HD
ATOM     16  H   UNL     1      -0.132  -8.711  16.230  0.00  0.00    +0.000 HD
ENDBRANCH  10  13
ENDBRANCH   7  10
ENDBRANCH   4   7
ENDBRANCH   1   4
BRANCH   1  17
ATOM     17  C   UNL     1       2.476  -5.003  14.665  0.00  0.00    +0.000 C 
ATOM     18  H   UNL     1       2.710  -4.667  13.647  0.00  0.00    +0.000 HD
BRANCH  17  19
ATOM     19  C   UNL     1       2.944  -3.935  15.659  0.00  0.00    +0.000 C 
ATOM     20  H   UNL     1       3.847  -4.281  16.176  0.00  0.00    +0.000 HD
ATOM     21  H   UNL     1       2.176  -3.752  16.418  0.00  0.00    +0.000 HD
BRANCH  19  22
ATOM     22  C   UNL     1       3.266  -2.614  14.972  0.00  0.00    +0.000 C 
ATOM     23  H   UNL     1       2.357  -2.024  14.812  0.00  0.00    +0.000 HD
ATOM     24  H   UNL     1       3.948  -2.024  15.591  0.00  0.00    +0.000 HD
ATOM     25  H   UNL     1       3.749  -2.773  14.002  0.00  0.00    +0.000 HD
ENDBRANCH  19  22
ENDBRANCH  17  19
BRANCH  17  26
ATOM     26  O   UNL     1       3.218  -6.200  14.887  0.00  0.00    +0.000 OA
ATOM     27  H   UNL     1       3.760  -6.361  14.096  0.00  0.00    +0.000 HD
ENDBRANCH  17  26
ENDBRANCH   1  17
TORSDOF 8
ENDMDL
MODEL 2
REMARK VINA RESULT:    -4.187     16.924     18.400
REMARK INTER + INTRA:          -5.914
REMARK INTER:                  -5.561
REMARK INTRA:                  -0.352
REMARK UNBOUND:                -0.135
REMARK  Name = 11527
REMARK  8 active torsions:
REMARK  status: ('A' for Active; 'I' for Inactive)
REMARK    1  A    between atoms: O_1  and  C_4
REMARK    2  A    between atoms: C_2  and  C_3
REMARK    3  A    between atoms: C_2  and  C_4
REMARK    4  A    between atoms: C_3  and  C_5
REMARK    5  A    between atoms: C_4  and  C_6
REMARK    6  A    between atoms: C_5  and  C_7
REMARK    7  A    between atoms: C_6  and  C_8
REMARK    8  A    between atoms: C_7  and  C_9
REMARK                            x       y       z     vdW  Elec       q    Type
REMARK                         _______ _______ _______ _____ _____    ______ ____
ROOT
ATOM      1  C   UNL     1       6.557  -2.982   0.286  0.00  0.00    +0.000 C 
ATOM      2  H   UNL     1       7.256  -3.652   0.804  0.00  0.00    +0.000 HD
ATOM      3  H   UNL     1       5.902  -2.584   1.071  0.00  0.00    +0.000 HD
ENDROOT
BRANCH   1   4
ATOM      4  C   UNL     1       7.329  -1.826  -0.362  0.00  0.00    +0.000 C 
ATOM      5  H   UNL     1       6.849  -0.873  -0.107  0.00  0.00    +0.000 HD
ATOM      6  H   UNL     1       7.307  -1.922  -1.454  0.00  0.00    +0.000 HD
BRANCH   4   7
ATOM      7  C   UNL     1       8.788  -1.810   0.102  0.00  0.00    +0.000 C 
ATOM      8  H   UNL     1       8.955  -2.639   0.802  0.00  0.00    +0.000 HD
ATOM      9  H   UNL     1       8.979  -0.883   0.658  0.00  0.00    +0.000 HD
BRANCH   7  10
ATOM     10  C   UNL     1       9.792  -1.919  -1.048  0.00  0.00    +0.000 C 
ATOM     11  H   UNL     1      10.339  -0.975  -1.144  0.00  0.00    +0.000 HD
ATOM     12  H   UNL     1      10.531  -2.693  -0.811  0.00  0.00    +0.000 HD
BRANCH  10  13
ATOM     13  C   UNL     1       9.148  -2.252  -2.385  0.00  0.00    +0.000 C 
ATOM     14  H   UNL     1       8.376  -3.018  -2.255  0.00  0.00    +0.000 HD
ATOM     15  H   UNL     1       9.890  -2.632  -3.092  0.00  0.00    +0.000 HD
ATOM     16  H   UNL     1       8.678  -1.366  -2.823  0.00  0.00    +0.000 HD
ENDBRANCH  10  13
ENDBRANCH   7  10
ENDBRANCH   4   7
ENDBRANCH   1   4
BRANCH   1  17
ATOM     17  C   UNL     1       5.704  -3.802  -0.693  0.00  0.00    +0.000 C 
ATOM     18  H   UNL     1       4.930  -4.337  -0.129  0.00  0.00    +0.000 HD
BRANCH  17  19
ATOM     19  C   UNL     1       5.031  -2.947  -1.771  0.00  0.00    +0.000 C 
ATOM     20  H   UNL     1       4.870  -3.548  -2.674  0.00  0.00    +0.000 HD
ATOM     21  H   UNL     1       5.668  -2.100  -2.045  0.00  0.00    +0.000 HD
BRANCH  19  22
ATOM     22  C   UNL     1       3.682  -2.407  -1.313  0.00  0.00    +0.000 C 
ATOM     23  H   UNL     1       3.595  -2.442  -0.222  0.00  0.00    +0.000 HD
ATOM     24  H   UNL     1       3.568  -1.365  -1.628  0.00  0.00    +0.000 HD
ATOM     25  H   UNL     1       2.853  -2.977  -1.744  0.00  0.00    +0.000 HD
ENDBRANCH  19  22
ENDBRANCH  17  19
BRANCH  17  26
ATOM     26  O   UNL     1       6.515  -4.791  -1.324  0.00  0.00    +0.000 OA
ATOM     27  H   UNL     1       6.156  -5.662  -1.085  0.00  0.00    +0.000 HD
ENDBRANCH  17  26
ENDBRANCH   1  17
TORSDOF 8
ENDMDL
MODEL 3
REMARK VINA RESULT:    -4.133     16.464     17.563
REMARK INTER + INTRA:          -5.839
REMARK INTER:                  -5.507
REMARK INTRA:                  -0.332
REMARK UNBOUND:                -0.135
REMARK  Name = 11527
REMARK  8 active torsions:
REMARK  status: ('A' for Active; 'I' for Inactive)
REMARK    1  A    between atoms: O_1  and  C_4
REMARK    2  A    between atoms: C_2  and  C_3
REMARK    3  A    between atoms: C_2  and  C_4
REMARK    4  A    between atoms: C_3  and  C_5
REMARK    5  A    between atoms: C_4  and  C_6
REMARK    6  A    between atoms: C_5  and  C_7
REMARK    7  A    between atoms: C_6  and  C_8
REMARK    8  A    between atoms: C_7  and  C_9
REMARK                            x       y       z     vdW  Elec       q    Type
REMARK                         _______ _______ _______ _____ _____    ______ ____
ROOT
ATOM      1  C   UNL     1       7.617  -3.505   0.133  0.00  0.00    +0.000 C 
ATOM      2  H   UNL     1       8.002  -4.372   0.686  0.00  0.00    +0.000 HD
ATOM      3  H   UNL     1       7.732  -3.763  -0.927  0.00  0.00    +0.000 HD
ENDROOT
BRANCH   1   4
ATOM      4  C   UNL     1       6.129  -3.305   0.448  0.00  0.00    +0.000 C 
ATOM      5  H   UNL     1       5.952  -2.265   0.745  0.00  0.00    +0.000 HD
ATOM      6  H   UNL     1       5.831  -3.943   1.287  0.00  0.00    +0.000 HD
BRANCH   4   7
ATOM      7  C   UNL     1       5.261  -3.650  -0.766  0.00  0.00    +0.000 C 
ATOM      8  H   UNL     1       4.518  -4.405  -0.478  0.00  0.00    +0.000 HD
ATOM      9  H   UNL     1       5.890  -4.105  -1.542  0.00  0.00    +0.000 HD
BRANCH   7  10
ATOM     10  C   UNL     1       4.536  -2.438  -1.357  0.00  0.00    +0.000 C 
ATOM     11  H   UNL     1       5.088  -1.526  -1.103  0.00  0.00    +0.000 HD
ATOM     12  H   UNL     1       4.534  -2.515  -2.450  0.00  0.00    +0.000 HD
BRANCH  10  13
ATOM     13  C   UNL     1       3.101  -2.295  -0.874  0.00  0.00    +0.000 C 
ATOM     14  H   UNL     1       2.518  -3.182  -1.145  0.00  0.00    +0.000 HD
ATOM     15  H   UNL     1       2.622  -1.421  -1.325  0.00  0.00    +0.000 HD
ATOM     16  H   UNL     1       3.065  -2.184   0.214  0.00  0.00    +0.000 HD
ENDBRANCH  10  13
ENDBRANCH   7  10
ENDBRANCH   4   7
ENDBRANCH   1   4
BRANCH   1  17
ATOM     17  C   UNL     1       8.498  -2.284   0.437  0.00  0.00    +0.000 C 
ATOM     18  H   UNL     1       9.442  -2.626   0.878  0.00  0.00    +0.000 HD
BRANCH  17  19
ATOM     19  C   UNL     1       8.808  -1.439  -0.803  0.00  0.00    +0.000 C 
ATOM     20  H   UNL     1       9.753  -0.902  -0.659  0.00  0.00    +0.000 HD
ATOM     21  H   UNL     1       8.023  -0.693  -0.967  0.00  0.00    +0.000 HD
BRANCH  19  22
ATOM     22  C   UNL     1       8.931  -2.291  -2.060  0.00  0.00    +0.000 C 
ATOM     23  H   UNL     1       8.818  -3.355  -1.825  0.00  0.00    +0.000 HD
ATOM     24  H   UNL     1       8.152  -2.018  -2.777  0.00  0.00    +0.000 HD
ATOM     25  H   UNL     1       9.900  -2.147  -2.550  0.00  0.00    +0.000 HD
ENDBRANCH  19  22
ENDBRANCH  17  19
BRANCH  17  26
ATOM     26  O   UNL     1       7.859  -1.461   1.410  0.00  0.00    +0.000 OA
ATOM     27  H   UNL     1       7.076  -1.064   0.992  0.00  0.00    +0.000 HD
ENDBRANCH  17  26
ENDBRANCH   1  17
TORSDOF 8
ENDMDL
MODEL 4
REMARK VINA RESULT:    -4.070     16.158     17.247
REMARK INTER + INTRA:          -5.751
REMARK INTER:                  -5.536
REMARK INTRA:                  -0.216
REMARK UNBOUND:                -0.135
REMARK  Name = 11527
REMARK  8 active torsions:
REMARK  status: ('A' for Active; 'I' for Inactive)
REMARK    1  A    between atoms: O_1  and  C_4
REMARK    2  A    between atoms: C_2  and  C_3
REMARK    3  A    between atoms: C_2  and  C_4
REMARK    4  A    between atoms: C_3  and  C_5
REMARK    5  A    between atoms: C_4  and  C_6
REMARK    6  A    between atoms: C_5  and  C_7
REMARK    7  A    between atoms: C_6  and  C_8
REMARK    8  A    between atoms: C_7  and  C_9
REMARK                            x       y       z     vdW  Elec       q    Type
REMARK                         _______ _______ _______ _____ _____    ______ ____
ROOT
ATOM      1  C   UNL     1       5.790 -12.421  -0.618  0.00  0.00    +0.000 C 
ATOM      2  H   UNL     1       5.975 -13.414  -1.047  0.00  0.00    +0.000 HD
ATOM      3  H   UNL     1       5.667 -11.752  -1.480  0.00  0.00    +0.000 HD
ENDROOT
BRANCH   1   4
ATOM      4  C   UNL     1       4.490 -12.438   0.197  0.00  0.00    +0.000 C 
ATOM      5  H   UNL     1       4.724 -12.347   1.264  0.00  0.00    +0.000 HD
ATOM      6  H   UNL     1       3.968 -13.391   0.055  0.00  0.00    +0.000 HD
BRANCH   4   7
ATOM      7  C   UNL     1       3.560 -11.298  -0.227  0.00  0.00    +0.000 C 
ATOM      8  H   UNL     1       2.966 -11.617  -1.093  0.00  0.00    +0.000 HD
ATOM      9  H   UNL     1       4.165 -10.443  -0.557  0.00  0.00    +0.000 HD
BRANCH   7  10
ATOM     10  C   UNL     1       2.614 -10.841   0.886  0.00  0.00    +0.000 C 
ATOM     11  H   UNL     1       2.757  -9.770   1.066  0.00  0.00    +0.000 HD
ATOM     12  H   UNL     1       1.577 -10.972   0.556  0.00  0.00    +0.000 HD
BRANCH  10  13
ATOM     13  C   UNL     1       2.811 -11.591   2.194  0.00  0.00    +0.000 C 
ATOM     14  H   UNL     1       3.710 -11.234   2.706  0.00  0.00    +0.000 HD
ATOM     15  H   UNL     1       2.923 -12.665   2.015  0.00  0.00    +0.000 HD
ATOM     16  H   UNL     1       1.957 -11.442   2.862  0.00  0.00    +0.000 HD
ENDBRANCH  10  13
ENDBRANCH   7  10
ENDBRANCH   4   7
ENDBRANCH   1   4
BRANCH   1  17
ATOM     17  C   UNL     1       7.028 -11.975   0.174  0.00  0.00    +0.000 C 
ATOM     18  H   UNL     1       7.697 -12.835   0.303  0.00  0.00    +0.000 HD
BRANCH  17  19
ATOM     19  C   UNL     1       7.803 -10.841  -0.504  0.00  0.00    +0.000 C 
ATOM     20  H   UNL     1       7.446  -9.874  -0.130  0.00  0.00    +0.000 HD
ATOM     21  H   UNL     1       7.644 -10.858  -1.587  0.00  0.00    +0.000 HD
BRANCH  19  22
ATOM     22  C   UNL     1       9.300 -10.931  -0.236  0.00  0.00    +0.000 C 
ATOM     23  H   UNL     1       9.721  -9.943  -0.024  0.00  0.00    +0.000 HD
ATOM     24  H   UNL     1       9.489 -11.572   0.630  0.00  0.00    +0.000 HD
ATOM     25  H   UNL     1       9.836 -11.359  -1.089  0.00  0.00    +0.000 HD
ENDBRANCH  19  22
ENDBRANCH  17  19
BRANCH  17  26
ATOM     26  O   UNL     1       6.637 -11.555   1.479  0.00  0.00    +0.000 OA
ATOM     27  H   UNL     1       6.745 -12.314   2.077  0.00  0.00    +0.000 HD
ENDBRANCH  17  26
ENDBRANCH   1  17
TORSDOF 8
ENDMDL
MODEL 5
REMARK VINA RESULT:    -3.907     15.166     16.083
REMARK INTER + INTRA:          -5.527
REMARK INTER:                  -5.179
REMARK INTRA:                  -0.347
REMARK UNBOUND:                -0.135
REMARK  Name = 11527
REMARK  8 active torsions:
REMARK  status: ('A' for Active; 'I' for Inactive)
REMARK    1  A    between atoms: O_1  and  C_4
REMARK    2  A    between atoms: C_2  and  C_3
REMARK    3  A    between atoms: C_2  and  C_4
REMARK    4  A    between atoms: C_3  and  C_5
REMARK    5  A    between atoms: C_4  and  C_6
REMARK    6  A    between atoms: C_5  and  C_7
REMARK    7  A    between atoms: C_6  and  C_8
REMARK    8  A    between atoms: C_7  and  C_9
REMARK                            x       y       z     vdW  Elec       q    Type
REMARK                         _______ _______ _______ _____ _____    ______ ____
ROOT
ATOM      1  C   UNL     1       4.129 -12.331   0.933  0.00  0.00    +0.000 C 
ATOM      2  H   UNL     1       3.775 -13.339   0.680  0.00  0.00    +0.000 HD
ATOM      3  H   UNL     1       4.301 -11.834  -0.030  0.00  0.00    +0.000 HD
ENDROOT
BRANCH   1   4
ATOM      4  C   UNL     1       3.041 -11.575   1.706  0.00  0.00    +0.000 C 
ATOM      5  H   UNL     1       2.135 -11.504   1.093  0.00  0.00    +0.000 HD
ATOM      6  H   UNL     1       3.372 -10.554   1.924  0.00  0.00    +0.000 HD
BRANCH   4   7
ATOM      7  C   UNL     1       2.715 -12.280   3.027  0.00  0.00    +0.000 C 
ATOM      8  H   UNL     1       1.922 -11.728   3.546  0.00  0.00    +0.000 HD
ATOM      9  H   UNL     1       3.599 -12.251   3.678  0.00  0.00    +0.000 HD
BRANCH   7  10
ATOM     10  C   UNL     1       2.275 -13.734   2.846  0.00  0.00    +0.000 C 
ATOM     11  H   UNL     1       1.207 -13.821   3.078  0.00  0.00    +0.000 HD
ATOM     12  H   UNL     1       2.396 -14.021   1.795  0.00  0.00    +0.000 HD
BRANCH  10  13
ATOM     13  C   UNL     1       3.048 -14.714   3.714  0.00  0.00    +0.000 C 
ATOM     14  H   UNL     1       4.098 -14.748   3.407  0.00  0.00    +0.000 HD
ATOM     15  H   UNL     1       2.635 -15.723   3.627  0.00  0.00    +0.000 HD
ATOM     16  H   UNL     1       3.011 -14.417   4.767  0.00  0.00    +0.000 HD
ENDBRANCH  10  13
ENDBRANCH   7  10
ENDBRANCH   4   7
ENDBRANCH   1   4
BRANCH   1  17
ATOM     17  C   UNL     1       5.471 -12.440   1.672  0.00  0.00    +0.000 C 
ATOM     18  H   UNL     1       5.301 -12.285   2.745  0.00  0.00    +0.000 HD
BRANCH  17  19
ATOM     19  C   UNL     1       6.164 -13.791   1.471  0.00  0.00    +0.000 C 
ATOM     20  H   UNL     1       5.893 -14.204   0.492  0.00  0.00    +0.000 HD
ATOM     21  H   UNL     1       5.844 -14.507   2.235  0.00  0.00    +0.000 HD
BRANCH  19  22
ATOM     22  C   UNL     1       7.682 -13.670   1.532  0.00  0.00    +0.000 C 
ATOM     23  H   UNL     1       8.137 -14.609   1.865  0.00  0.00    +0.000 HD
ATOM     24  H   UNL     1       8.081 -13.435   0.541  0.00  0.00    +0.000 HD
ATOM     25  H   UNL     1       7.995 -12.874   2.215  0.00  0.00    +0.000 HD
ENDBRANCH  19  22
ENDBRANCH  17  19
BRANCH  17  26
ATOM     26  O   UNL     1       6.345 -11.401   1.236  0.00  0.00    +0.000 OA
ATOM     27  H   UNL     1       6.957 -11.786   0.587  0.00  0.00    +0.000 HD
ENDBRANCH  17  26
ENDBRANCH   1  17
TORSDOF 8
ENDMDL
MODEL 6
REMARK VINA RESULT:    -3.898      5.266      8.308
REMARK INTER + INTRA:          -5.515
REMARK INTER:                  -5.380
REMARK INTRA:                  -0.135
REMARK UNBOUND:                -0.135
REMARK  Name = 11527
REMARK  8 active torsions:
REMARK  status: ('A' for Active; 'I' for Inactive)
REMARK    1  A    between atoms: O_1  and  C_4
REMARK    2  A    between atoms: C_2  and  C_3
REMARK    3  A    between atoms: C_2  and  C_4
REMARK    4  A    between atoms: C_3  and  C_5
REMARK    5  A    between atoms: C_4  and  C_6
REMARK    6  A    between atoms: C_5  and  C_7
REMARK    7  A    between atoms: C_6  and  C_8
REMARK    8  A    between atoms: C_7  and  C_9
REMARK                            x       y       z     vdW  Elec       q    Type
REMARK                         _______ _______ _______ _____ _____    ______ ____
ROOT
ATOM      1  C   UNL     1      -1.932 -11.337  16.973  0.00  0.00    +0.000 C 
ATOM      2  H   UNL     1      -2.656 -10.530  17.139  0.00  0.00    +0.000 HD
ATOM      3  H   UNL     1      -1.515 -11.152  15.975  0.00  0.00    +0.000 HD
ENDROOT
BRANCH   1   4
ATOM      4  C   UNL     1      -0.809 -11.253  18.014  0.00  0.00    +0.000 C 
ATOM      5  H   UNL     1      -0.352 -12.241  18.145  0.00  0.00    +0.000 HD
ATOM      6  H   UNL     1      -1.216 -10.947  18.985  0.00  0.00    +0.000 HD
BRANCH   4   7
ATOM      7  C   UNL     1       0.260 -10.242  17.588  0.00  0.00    +0.000 C 
ATOM      8  H   UNL     1       0.710 -10.567  16.641  0.00  0.00    +0.000 HD
ATOM      9  H   UNL     1       1.065 -10.233  18.334  0.00  0.00    +0.000 HD
BRANCH   7  10
ATOM     10  C   UNL     1      -0.282  -8.820  17.420  0.00  0.00    +0.000 C 
ATOM     11  H   UNL     1       0.222  -8.337  16.575  0.00  0.00    +0.000 HD
ATOM     12  H   UNL     1      -1.348  -8.867  17.171  0.00  0.00    +0.000 HD
BRANCH  10  13
ATOM     13  C   UNL     1      -0.105  -7.955  18.658  0.00  0.00    +0.000 C 
ATOM     14  H   UNL     1      -0.845  -8.224  19.419  0.00  0.00    +0.000 HD
ATOM     15  H   UNL     1      -0.235  -6.896  18.415  0.00  0.00    +0.000 HD
ATOM     16  H   UNL     1       0.891  -8.089  19.090  0.00  0.00    +0.000 HD
ENDBRANCH  10  13
ENDBRANCH   7  10
ENDBRANCH   4   7
ENDBRANCH   1   4
BRANCH   1  17
ATOM     17  C   UNL     1      -2.673 -12.682  16.950  0.00  0.00    +0.000 C 
ATOM     18  H   UNL     1      -1.971 -13.482  17.216  0.00  0.00    +0.000 HD
BRANCH  17  19
ATOM     19  C   UNL     1      -3.867 -12.731  17.909  0.00  0.00    +0.000 C 
ATOM     20  H   UNL     1      -4.444 -11.802  17.830  0.00  0.00    +0.000 HD
ATOM     21  H   UNL     1      -3.525 -12.823  18.945  0.00  0.00    +0.000 HD
BRANCH  19  22
ATOM     22  C   UNL     1      -4.799 -13.897  17.604  0.00  0.00    +0.000 C 
ATOM     23  H   UNL     1      -5.004 -14.482  18.507  0.00  0.00    +0.000 HD
ATOM     24  H   UNL     1      -5.753 -13.525  17.219  0.00  0.00    +0.000 HD
ATOM     25  H   UNL     1      -4.373 -14.566  16.850  0.00  0.00    +0.000 HD
ENDBRANCH  19  22
ENDBRANCH  17  19
BRANCH  17  26
ATOM     26  O   UNL     1      -3.131 -12.956  15.627  0.00  0.00    +0.000 OA
ATOM     27  H   UNL     1      -2.350 -13.145  15.079  0.00  0.00    +0.000 HD
ENDBRANCH  17  26
ENDBRANCH   1  17
TORSDOF 8
ENDMDL
MODEL 7
REMARK VINA RESULT:    -3.875     23.056     25.071
REMARK INTER + INTRA:          -5.483
REMARK INTER:                  -5.277
REMARK INTRA:                  -0.206
REMARK UNBOUND:                -0.135
REMARK  Name = 11527
REMARK  8 active torsions:
REMARK  status: ('A' for Active; 'I' for Inactive)
REMARK    1  A    between atoms: O_1  and  C_4
REMARK    2  A    between atoms: C_2  and  C_3
REMARK    3  A    between atoms: C_2  and  C_4
REMARK    4  A    between atoms: C_3  and  C_5
REMARK    5  A    between atoms: C_4  and  C_6
REMARK    6  A    between atoms: C_5  and  C_7
REMARK    7  A    between atoms: C_6  and  C_8
REMARK    8  A    between atoms: C_7  and  C_9
REMARK                            x       y       z     vdW  Elec       q    Type
REMARK                         _______ _______ _______ _____ _____    ______ ____
ROOT
ATOM      1  C   UNL     1       7.139  12.757  -0.491  0.00  0.00    +0.000 C 
ATOM      2  H   UNL     1       7.500  13.420   0.306  0.00  0.00    +0.000 HD
ATOM      3  H   UNL     1       7.874  11.944  -0.546  0.00  0.00    +0.000 HD
ENDROOT
BRANCH   1   4
ATOM      4  C   UNL     1       5.772  12.177  -0.107  0.00  0.00    +0.000 C 
ATOM      5  H   UNL     1       5.566  11.286  -0.713  0.00  0.00    +0.000 HD
ATOM      6  H   UNL     1       4.980  12.906  -0.314  0.00  0.00    +0.000 HD
BRANCH   4   7
ATOM      7  C   UNL     1       5.727  11.811   1.380  0.00  0.00    +0.000 C 
ATOM      8  H   UNL     1       6.226  10.846   1.531  0.00  0.00    +0.000 HD
ATOM      9  H   UNL     1       4.682  11.679   1.687  0.00  0.00    +0.000 HD
BRANCH   7  10
ATOM     10  C   UNL     1       6.385  12.858   2.282  0.00  0.00    +0.000 C 
ATOM     11  H   UNL     1       7.475  12.777   2.197  0.00  0.00    +0.000 HD
ATOM     12  H   UNL     1       6.113  13.860   1.932  0.00  0.00    +0.000 HD
BRANCH  10  13
ATOM     13  C   UNL     1       5.995  12.728   3.746  0.00  0.00    +0.000 C 
ATOM     14  H   UNL     1       5.048  13.244   3.934  0.00  0.00    +0.000 HD
ATOM     15  H   UNL     1       6.759  13.168   4.394  0.00  0.00    +0.000 HD
ATOM     16  H   UNL     1       5.872  11.677   4.025  0.00  0.00    +0.000 HD
ENDBRANCH  10  13
ENDBRANCH   7  10
ENDBRANCH   4   7
ENDBRANCH   1   4
BRANCH   1  17
ATOM     17  C   UNL     1       7.152  13.518  -1.824  0.00  0.00    +0.000 C 
ATOM     18  H   UNL     1       7.570  14.519  -1.659  0.00  0.00    +0.000 HD
BRANCH  17  19
ATOM     19  C   UNL     1       7.966  12.814  -2.914  0.00  0.00    +0.000 C 
ATOM     20  H   UNL     1       8.668  13.524  -3.369  0.00  0.00    +0.000 HD
ATOM     21  H   UNL     1       7.309  12.442  -3.707  0.00  0.00    +0.000 HD
BRANCH  19  22
ATOM     22  C   UNL     1       8.767  11.641  -2.363  0.00  0.00    +0.000 C 
ATOM     23  H   UNL     1       8.270  10.690  -2.581  0.00  0.00    +0.000 HD
ATOM     24  H   UNL     1       9.760  11.616  -2.821  0.00  0.00    +0.000 HD
ATOM     25  H   UNL     1       8.902  11.720  -1.280  0.00  0.00    +0.000 HD
ENDBRANCH  19  22
ENDBRANCH  17  19
BRANCH  17  26
ATOM     26  O   UNL     1       5.815  13.699  -2.287  0.00  0.00    +0.000 OA
ATOM     27  H   UNL     1       5.679  13.091  -3.034  0.00  0.00    +0.000 HD
ENDBRANCH  17  26
ENDBRANCH   1  17
TORSDOF 8
ENDMDL
MODEL 8
REMARK VINA RESULT:    -3.822     15.304     16.115
REMARK INTER + INTRA:          -5.410
REMARK INTER:                  -5.207
REMARK INTRA:                  -0.203
REMARK UNBOUND:                -0.135
REMARK  Name = 11527
REMARK  8 active torsions:
REMARK  status: ('A' for Active; 'I' for Inactive)
REMARK    1  A    between atoms: O_1  and  C_4
REMARK    2  A    between atoms: C_2  and  C_3
REMARK    3  A    between atoms: C_2  and  C_4
REMARK    4  A    between atoms: C_3  and  C_5
REMARK    5  A    between atoms: C_4  and  C_6
REMARK    6  A    between atoms: C_5  and  C_7
REMARK    7  A    between atoms: C_6  and  C_8
REMARK    8  A    between atoms: C_7  and  C_9
REMARK                            x       y       z     vdW  Elec       q    Type
REMARK                         _______ _______ _______ _____ _____    ______ ____
ROOT
ATOM      1  C   UNL     1      -6.322 -13.665   3.775  0.00  0.00    +0.000 C 
ATOM      2  H   UNL     1      -5.608 -14.364   3.322  0.00  0.00    +0.000 HD
ATOM      3  H   UNL     1      -7.257 -14.231   3.878  0.00  0.00    +0.000 HD
ENDROOT
BRANCH   1   4
ATOM      4  C   UNL     1      -5.831 -13.244   5.166  0.00  0.00    +0.000 C 
ATOM      5  H   UNL     1      -5.033 -12.499   5.065  0.00  0.00    +0.000 HD
ATOM      6  H   UNL     1      -5.410 -14.107   5.695  0.00  0.00    +0.000 HD
BRANCH   4   7
ATOM      7  C   UNL     1      -6.976 -12.664   6.001  0.00  0.00    +0.000 C 
ATOM      8  H   UNL     1      -7.890 -12.638   5.394  0.00  0.00    +0.000 HD
ATOM      9  H   UNL     1      -6.740 -11.625   6.263  0.00  0.00    +0.000 HD
BRANCH   7  10
ATOM     10  C   UNL     1      -7.251 -13.453   7.283  0.00  0.00    +0.000 C 
ATOM     11  H   UNL     1      -6.299 -13.745   7.741  0.00  0.00    +0.000 HD
ATOM     12  H   UNL     1      -7.766 -12.806   8.003  0.00  0.00    +0.000 HD
BRANCH  10  13
ATOM     13  C   UNL     1      -8.092 -14.700   7.059  0.00  0.00    +0.000 C 
ATOM     14  H   UNL     1      -8.942 -14.714   7.747  0.00  0.00    +0.000 HD
ATOM     15  H   UNL     1      -7.500 -15.605   7.228  0.00  0.00    +0.000 HD
ATOM     16  H   UNL     1      -8.481 -14.730   6.036  0.00  0.00    +0.000 HD
ENDBRANCH  10  13
ENDBRANCH   7  10
ENDBRANCH   4   7
ENDBRANCH   1   4
BRANCH   1  17
ATOM     17  C   UNL     1      -6.564 -12.496   2.809  0.00  0.00    +0.000 C 
ATOM     18  H   UNL     1      -7.166 -11.732   3.316  0.00  0.00    +0.000 HD
BRANCH  17  19
ATOM     19  C   UNL     1      -5.269 -11.852   2.303  0.00  0.00    +0.000 C 
ATOM     20  H   UNL     1      -4.421 -12.206   2.902  0.00  0.00    +0.000 HD
ATOM     21  H   UNL     1      -5.315 -10.763   2.403  0.00  0.00    +0.000 HD
BRANCH  19  22
ATOM     22  C   UNL     1      -4.994 -12.190   0.843  0.00  0.00    +0.000 C 
ATOM     23  H   UNL     1      -4.416 -13.116   0.757  0.00  0.00    +0.000 HD
ATOM     24  H   UNL     1      -5.937 -12.328   0.305  0.00  0.00    +0.000 HD
ATOM     25  H   UNL     1      -4.440 -11.389   0.343  0.00  0.00    +0.000 HD
ENDBRANCH  19  22
ENDBRANCH  17  19
BRANCH  17  26
ATOM     26  O   UNL     1      -7.325 -12.947   1.690  0.00  0.00    +0.000 OA
ATOM     27  H   UNL     1      -7.718 -12.165   1.267  0.00  0.00    +0.000 HD
ENDBRANCH  17  26
ENDBRANCH   1  17
TORSDOF 8
ENDMDL
MODEL 9
REMARK VINA RESULT:    -3.813     17.983     19.031
REMARK INTER + INTRA:          -5.397
REMARK INTER:                  -5.302
REMARK INTRA:                  -0.095
REMARK UNBOUND:                -0.135
REMARK  Name = 11527
REMARK  8 active torsions:
REMARK  status: ('A' for Active; 'I' for Inactive)
REMARK    1  A    between atoms: O_1  and  C_4
REMARK    2  A    between atoms: C_2  and  C_3
REMARK    3  A    between atoms: C_2  and  C_4
REMARK    4  A    between atoms: C_3  and  C_5
REMARK    5  A    between atoms: C_4  and  C_6
REMARK    6  A    between atoms: C_5  and  C_7
REMARK    7  A    between atoms: C_6  and  C_8
REMARK    8  A    between atoms: C_7  and  C_9
REMARK                            x       y       z     vdW  Elec       q    Type
REMARK                         _______ _______ _______ _____ _____    ______ ____
ROOT
ATOM      1  C   UNL     1       7.360 -12.015  -0.263  0.00  0.00    +0.000 C 
ATOM      2  H   UNL     1       7.732 -12.781  -0.957  0.00  0.00    +0.000 HD
ATOM      3  H   UNL     1       7.667 -12.354   0.734  0.00  0.00    +0.000 HD
ENDROOT
BRANCH   1   4
ATOM      4  C   UNL     1       8.028 -10.668  -0.568  0.00  0.00    +0.000 C 
ATOM      5  H   UNL     1       7.621  -9.897   0.097  0.00  0.00    +0.000 HD
ATOM      6  H   UNL     1       7.810 -10.362  -1.597  0.00  0.00    +0.000 HD
BRANCH   4   7
ATOM      7  C   UNL     1       9.546 -10.755  -0.389  0.00  0.00    +0.000 C 
ATOM      8  H   UNL     1       9.967 -11.402  -1.170  0.00  0.00    +0.000 HD
ATOM      9  H   UNL     1       9.769 -11.234   0.573  0.00  0.00    +0.000 HD
BRANCH   7  10
ATOM     10  C   UNL     1      10.242  -9.393  -0.443  0.00  0.00    +0.000 C 
ATOM     11  H   UNL     1       9.494  -8.599  -0.340  0.00  0.00    +0.000 HD
ATOM     12  H   UNL     1      10.924  -9.301   0.410  0.00  0.00    +0.000 HD
BRANCH  10  13
ATOM     13  C   UNL     1      11.028  -9.164  -1.725  0.00  0.00    +0.000 C 
ATOM     14  H   UNL     1      10.639  -9.798  -2.528  0.00  0.00    +0.000 HD
ATOM     15  H   UNL     1      12.086  -9.403  -1.583  0.00  0.00    +0.000 HD
ATOM     16  H   UNL     1      10.952  -8.121  -2.049  0.00  0.00    +0.000 HD
ENDBRANCH  10  13
ENDBRANCH   7  10
ENDBRANCH   4   7
ENDBRANCH   1   4
BRANCH   1  17
ATOM     17  C   UNL     1       5.826 -11.988  -0.318  0.00  0.00    +0.000 C 
ATOM     18  H   UNL     1       5.507 -11.186  -0.996  0.00  0.00    +0.000 HD
BRANCH  17  19
ATOM     19  C   UNL     1       5.214 -13.310  -0.793  0.00  0.00    +0.000 C 
ATOM     20  H   UNL     1       5.727 -13.651  -1.700  0.00  0.00    +0.000 HD
ATOM     21  H   UNL     1       4.155 -13.179  -1.038  0.00  0.00    +0.000 HD
BRANCH  19  22
ATOM     22  C   UNL     1       5.332 -14.405   0.260  0.00  0.00    +0.000 C 
ATOM     23  H   UNL     1       4.465 -15.074   0.229  0.00  0.00    +0.000 HD
ATOM     24  H   UNL     1       6.228 -15.005   0.080  0.00  0.00    +0.000 HD
ATOM     25  H   UNL     1       5.408 -13.987   1.269  0.00  0.00    +0.000 HD
ENDBRANCH  19  22
ENDBRANCH  17  19
BRANCH  17  26
ATOM     26  O   UNL     1       5.304 -11.672   0.971  0.00  0.00    +0.000 OA
ATOM     27  H   UNL     1       5.995 -11.189   1.457  0.00  0.00    +0.000 HD
ENDBRANCH  17  26
ENDBRANCH   1  17
TORSDOF 8
ENDMDL
MODEL 10
REMARK VINA RESULT:    -3.737     16.051     17.005
REMARK INTER + INTRA:          -5.292
REMARK INTER:                  -4.897
REMARK INTRA:                  -0.395
REMARK UNBOUND:                -0.135
REMARK  Name = 11527
REMARK  8 active torsions:
REMARK  status: ('A' for Active; 'I' for Inactive)
REMARK    1  A    between atoms: O_1  and  C_4
REMARK    2  A    between atoms: C_2  and  C_3
REMARK    3  A    between atoms: C_2  and  C_4
REMARK    4  A    between atoms: C_3  and  C_5
REMARK    5  A    between atoms: C_4  and  C_6
REMARK    6  A    between atoms: C_5  and  C_7
REMARK    7  A    between atoms: C_6  and  C_8
REMARK    8  A    between atoms: C_7  and  C_9
REMARK                            x       y       z     vdW  Elec       q    Type
REMARK                         _______ _______ _______ _____ _____    ______ ____
ROOT
ATOM      1  C   UNL     1       4.912 -13.725   1.471  0.00  0.00    +0.000 C 
ATOM      2  H   UNL     1       4.344 -12.787   1.412  0.00  0.00    +0.000 HD
ATOM      3  H   UNL     1       5.784 -13.497   2.097  0.00  0.00    +0.000 HD
ENDROOT
BRANCH   1   4
ATOM      4  C   UNL     1       4.065 -14.805   2.157  0.00  0.00    +0.000 C 
ATOM      5  H   UNL     1       4.717 -15.604   2.527  0.00  0.00    +0.000 HD
ATOM      6  H   UNL     1       3.370 -15.253   1.438  0.00  0.00    +0.000 HD
BRANCH   4   7
ATOM      7  C   UNL     1       3.261 -14.215   3.319  0.00  0.00    +0.000 C 
ATOM      8  H   UNL     1       3.821 -14.349   4.253  0.00  0.00    +0.000 HD
ATOM      9  H   UNL     1       2.324 -14.776   3.429  0.00  0.00    +0.000 HD
BRANCH   7  10
ATOM     10  C   UNL     1       2.937 -12.730   3.141  0.00  0.00    +0.000 C 
ATOM     11  H   UNL     1       2.934 -12.239   4.121  0.00  0.00    +0.000 HD
ATOM     12  H   UNL     1       3.728 -12.255   2.549  0.00  0.00    +0.000 HD
BRANCH  10  13
ATOM     13  C   UNL     1       1.600 -12.479   2.461  0.00  0.00    +0.000 C 
ATOM     14  H   UNL     1       1.071 -11.657   2.955  0.00  0.00    +0.000 HD
ATOM     15  H   UNL     1       0.965 -13.369   2.507  0.00  0.00    +0.000 HD
ATOM     16  H   UNL     1       1.740 -12.211   1.410  0.00  0.00    +0.000 HD
ENDBRANCH  10  13
ENDBRANCH   7  10
ENDBRANCH   4   7
ENDBRANCH   1   4
BRANCH   1  17
ATOM     17  C   UNL     1       5.406 -14.105   0.067  0.00  0.00    +0.000 C 
ATOM     18  H   UNL     1       5.012 -15.095  -0.194  0.00  0.00    +0.000 HD
BRANCH  17  19
ATOM     19  C   UNL     1       4.984 -13.103  -1.013  0.00  0.00    +0.000 C 
ATOM     20  H   UNL     1       4.315 -13.593  -1.731  0.00  0.00    +0.000 HD
ATOM     21  H   UNL     1       5.857 -12.742  -1.566  0.00  0.00    +0.000 HD
BRANCH  19  22
ATOM     22  C   UNL     1       4.254 -11.901  -0.426  0.00  0.00    +0.000 C 
ATOM     23  H   UNL     1       3.298 -12.201   0.016  0.00  0.00    +0.000 HD
ATOM     24  H   UNL     1       4.861 -11.440   0.359  0.00  0.00    +0.000 HD
ATOM     25  H   UNL     1       4.059 -11.139  -1.187  0.00  0.00    +0.000 HD
ENDBRANCH  19  22
ENDBRANCH  17  19
BRANCH  17  26
ATOM     26  O   UNL     1       6.828 -14.212   0.070  0.00  0.00    +0.000 OA
ATOM     27  H   UNL     1       7.066 -14.945   0.662  0.00  0.00    +0.000 HD
ENDBRANCH  17  26
ENDBRANCH   1  17
TORSDOF 8
ENDMDL
