MODEL 1
REMARK VINA RESULT:    -4.314      0.000      0.000
REMARK INTER + INTRA:          -6.140
REMARK INTER:                  -5.656
REMARK INTRA:                  -0.483
REMARK UNBOUND:                -0.187
REMARK  Name = 11515
REMARK  8 active torsions:
REMARK  status: ('A' for Active; 'I' for Inactive)
REMARK    1  A    between atoms: O_1  and  C_2
REMARK    2  A    between atoms: C_2  and  C_3
REMARK    3  A    between atoms: C_2  and  C_4
REMARK    4  A    between atoms: C_3  and  C_5
REMARK    5  A    between atoms: C_4  and  C_6
REMARK    6  A    between atoms: C_5  and  C_7
REMARK    7  A    between atoms: C_6  and  C_8
REMARK    8  A    between atoms: C_7  and  C_9
REMARK                            x       y       z     vdW  Elec       q    Type
REMARK                         _______ _______ _______ _____ _____    ______ ____
ROOT
ATOM      1  C   UNL     1       1.838  -3.356  15.432  0.00  0.00    +0.000 C 
ATOM      2  H   UNL     1       1.639  -3.060  16.468  0.00  0.00    +0.000 HD
ENDROOT
BRANCH   1   3
ATOM      3  C   UNL     1       0.947  -4.542  15.044  0.00  0.00    +0.000 C 
ATOM      4  H   UNL     1       0.253  -4.235  14.252  0.00  0.00    +0.000 HD
ATOM      5  H   UNL     1       1.569  -5.349  14.638  0.00  0.00    +0.000 HD
BRANCH   3   6
ATOM      6  C   UNL     1       0.126  -5.063  16.230  0.00  0.00    +0.000 C 
ATOM      7  H   UNL     1       0.728  -5.008  17.145  0.00  0.00    +0.000 HD
ATOM      8  H   UNL     1      -0.756  -4.431  16.384  0.00  0.00    +0.000 HD
BRANCH   6   9
ATOM      9  C   UNL     1      -0.326  -6.505  16.000  0.00  0.00    +0.000 C 
ATOM     10  H   UNL     1      -0.462  -7.012  16.962  0.00  0.00    +0.000 HD
ATOM     11  H   UNL     1      -1.296  -6.514  15.489  0.00  0.00    +0.000 HD
BRANCH   9  12
ATOM     12  C   UNL     1       0.684  -7.281  15.168  0.00  0.00    +0.000 C 
ATOM     13  H   UNL     1       0.229  -7.655  14.246  0.00  0.00    +0.000 HD
ATOM     14  H   UNL     1       1.525  -6.636  14.896  0.00  0.00    +0.000 HD
ATOM     15  H   UNL     1       1.079  -8.134  15.728  0.00  0.00    +0.000 HD
ENDBRANCH   9  12
ENDBRANCH   6   9
ENDBRANCH   3   6
ENDBRANCH   1   3
BRANCH   1  16
ATOM     16  C   UNL     1       3.335  -3.642  15.253  0.00  0.00    +0.000 C 
ATOM     17  H   UNL     1       3.671  -3.193  14.310  0.00  0.00    +0.000 HD
ATOM     18  H   UNL     1       3.884  -3.132  16.056  0.00  0.00    +0.000 HD
BRANCH  16  19
ATOM     19  C   UNL     1       3.746  -5.115  15.276  0.00  0.00    +0.000 C 
ATOM     20  H   UNL     1       2.981  -5.721  14.774  0.00  0.00    +0.000 HD
ATOM     21  H   UNL     1       4.672  -5.239  14.704  0.00  0.00    +0.000 HD
BRANCH  19  22
ATOM     22  C   UNL     1       3.949  -5.667  16.678  0.00  0.00    +0.000 C 
ATOM     23  H   UNL     1       4.742  -6.421  16.678  0.00  0.00    +0.000 HD
ATOM     24  H   UNL     1       4.234  -4.872  17.373  0.00  0.00    +0.000 HD
ATOM     25  H   UNL     1       3.032  -6.137  17.049  0.00  0.00    +0.000 HD
ENDBRANCH  19  22
ENDBRANCH  16  19
ENDBRANCH   1  16
BRANCH   1  26
ATOM     26  O   UNL     1       1.500  -2.245  14.597  0.00  0.00    +0.000 OA
ATOM     27  H   UNL     1       0.649  -1.889  14.904  0.00  0.00    +0.000 HD
ENDBRANCH   1  26
TORSDOF 8
ENDMDL
MODEL 2
REMARK VINA RESULT:    -4.194      1.813      2.421
REMARK INTER + INTRA:          -5.975
REMARK INTER:                  -5.440
REMARK INTRA:                  -0.535
REMARK UNBOUND:                -0.187
REMARK  Name = 11515
REMARK  8 active torsions:
REMARK  status: ('A' for Active; 'I' for Inactive)
REMARK    1  A    between atoms: O_1  and  C_2
REMARK    2  A    between atoms: C_2  and  C_3
REMARK    3  A    between atoms: C_2  and  C_4
REMARK    4  A    between atoms: C_3  and  C_5
REMARK    5  A    between atoms: C_4  and  C_6
REMARK    6  A    between atoms: C_5  and  C_7
REMARK    7  A    between atoms: C_6  and  C_8
REMARK    8  A    between atoms: C_7  and  C_9
REMARK                            x       y       z     vdW  Elec       q    Type
REMARK                         _______ _______ _______ _____ _____    ______ ____
ROOT
ATOM      1  C   UNL     1       0.849  -4.917  15.785  0.00  0.00    +0.000 C 
ATOM      2  H   UNL     1       0.933  -3.883  16.139  0.00  0.00    +0.000 HD
ENDROOT
BRANCH   1   3
ATOM      3  C   UNL     1      -0.314  -5.622  16.493  0.00  0.00    +0.000 C 
ATOM      4  H   UNL     1      -0.076  -5.741  17.558  0.00  0.00    +0.000 HD
ATOM      5  H   UNL     1      -1.213  -4.998  16.428  0.00  0.00    +0.000 HD
BRANCH   3   6
ATOM      6  C   UNL     1      -0.597  -7.009  15.905  0.00  0.00    +0.000 C 
ATOM      7  H   UNL     1      -1.640  -7.059  15.570  0.00  0.00    +0.000 HD
ATOM      8  H   UNL     1       0.034  -7.181  15.025  0.00  0.00    +0.000 HD
BRANCH   6   9
ATOM      9  C   UNL     1      -0.335  -8.111  16.932  0.00  0.00    +0.000 C 
ATOM     10  H   UNL     1      -1.180  -8.809  16.953  0.00  0.00    +0.000 HD
ATOM     11  H   UNL     1       0.553  -8.686  16.643  0.00  0.00    +0.000 HD
BRANCH   9  12
ATOM     12  C   UNL     1      -0.129  -7.537  18.325  0.00  0.00    +0.000 C 
ATOM     13  H   UNL     1       0.657  -6.776  18.323  0.00  0.00    +0.000 HD
ATOM     14  H   UNL     1      -1.053  -7.072  18.684  0.00  0.00    +0.000 HD
ATOM     15  H   UNL     1       0.153  -8.321  19.034  0.00  0.00    +0.000 HD
ENDBRANCH   9  12
ENDBRANCH   6   9
ENDBRANCH   3   6
ENDBRANCH   1   3
BRANCH   1  16
ATOM     16  C   UNL     1       2.192  -5.637  15.967  0.00  0.00    +0.000 C 
ATOM     17  H   UNL     1       2.878  -4.974  16.508  0.00  0.00    +0.000 HD
ATOM     18  H   UNL     1       2.032  -6.514  16.609  0.00  0.00    +0.000 HD
BRANCH  16  19
ATOM     19  C   UNL     1       2.875  -6.121  14.687  0.00  0.00    +0.000 C 
ATOM     20  H   UNL     1       2.435  -5.615  13.819  0.00  0.00    +0.000 HD
ATOM     21  H   UNL     1       3.933  -5.839  14.715  0.00  0.00    +0.000 HD
BRANCH  19  22
ATOM     22  C   UNL     1       2.765  -7.622  14.471  0.00  0.00    +0.000 C 
ATOM     23  H   UNL     1       1.715  -7.926  14.440  0.00  0.00    +0.000 HD
ATOM     24  H   UNL     1       3.234  -7.915  13.526  0.00  0.00    +0.000 HD
ATOM     25  H   UNL     1       3.255  -8.170  15.282  0.00  0.00    +0.000 HD
ENDBRANCH  19  22
ENDBRANCH  16  19
ENDBRANCH   1  16
BRANCH   1  26
ATOM     26  O   UNL     1       0.563  -4.868  14.384  0.00  0.00    +0.000 OA
ATOM     27  H   UNL     1      -0.384  -4.675  14.280  0.00  0.00    +0.000 HD
ENDBRANCH   1  26
TORSDOF 8
ENDMDL
MODEL 3
REMARK VINA RESULT:    -4.094     18.340     19.161
REMARK INTER + INTRA:          -5.837
REMARK INTER:                  -5.525
REMARK INTRA:                  -0.312
REMARK UNBOUND:                -0.187
REMARK  Name = 11515
REMARK  8 active torsions:
REMARK  status: ('A' for Active; 'I' for Inactive)
REMARK    1  A    between atoms: O_1  and  C_2
REMARK    2  A    between atoms: C_2  and  C_3
REMARK    3  A    between atoms: C_2  and  C_4
REMARK    4  A    between atoms: C_3  and  C_5
REMARK    5  A    between atoms: C_4  and  C_6
REMARK    6  A    between atoms: C_5  and  C_7
REMARK    7  A    between atoms: C_6  and  C_8
REMARK    8  A    between atoms: C_7  and  C_9
REMARK                            x       y       z     vdW  Elec       q    Type
REMARK                         _______ _______ _______ _____ _____    ______ ____
ROOT
ATOM      1  C   UNL     1       9.361  -9.472  -0.205  0.00  0.00    +0.000 C 
ATOM      2  H   UNL     1       9.615  -9.135   0.807  0.00  0.00    +0.000 HD
ENDROOT
BRANCH   1   3
ATOM      3  C   UNL     1       9.148 -10.990  -0.215  0.00  0.00    +0.000 C 
ATOM      4  H   UNL     1       9.466 -11.398  -1.183  0.00  0.00    +0.000 HD
ATOM      5  H   UNL     1       9.777 -11.452   0.556  0.00  0.00    +0.000 HD
BRANCH   3   6
ATOM      6  C   UNL     1       7.681 -11.372   0.010  0.00  0.00    +0.000 C 
ATOM      7  H   UNL     1       7.489 -11.471   1.086  0.00  0.00    +0.000 HD
ATOM      8  H   UNL     1       7.023 -10.579  -0.364  0.00  0.00    +0.000 HD
BRANCH   6   9
ATOM      9  C   UNL     1       7.335 -12.683  -0.695  0.00  0.00    +0.000 C 
ATOM     10  H   UNL     1       7.120 -13.461   0.047  0.00  0.00    +0.000 HD
ATOM     11  H   UNL     1       6.430 -12.554  -1.300  0.00  0.00    +0.000 HD
BRANCH   9  12
ATOM     12  C   UNL     1       8.472 -13.152  -1.590  0.00  0.00    +0.000 C 
ATOM     13  H   UNL     1       9.175 -12.338  -1.788  0.00  0.00    +0.000 HD
ATOM     14  H   UNL     1       9.021 -13.968  -1.109  0.00  0.00    +0.000 HD
ATOM     15  H   UNL     1       8.091 -13.519  -2.548  0.00  0.00    +0.000 HD
ENDBRANCH   9  12
ENDBRANCH   6   9
ENDBRANCH   3   6
ENDBRANCH   1   3
BRANCH   1  16
ATOM     16  C   UNL     1      10.441  -9.007  -1.192  0.00  0.00    +0.000 C 
ATOM     17  H   UNL     1      10.029  -8.204  -1.815  0.00  0.00    +0.000 HD
ATOM     18  H   UNL     1      11.269  -8.566  -0.619  0.00  0.00    +0.000 HD
BRANCH  16  19
ATOM     19  C   UNL     1      11.032 -10.087  -2.099  0.00  0.00    +0.000 C 
ATOM     20  H   UNL     1      11.259 -10.983  -1.509  0.00  0.00    +0.000 HD
ATOM     21  H   UNL     1      10.284 -10.381  -2.844  0.00  0.00    +0.000 HD
BRANCH  19  22
ATOM     22  C   UNL     1      12.301  -9.652  -2.814  0.00  0.00    +0.000 C 
ATOM     23  H   UNL     1      13.142  -9.626  -2.114  0.00  0.00    +0.000 HD
ATOM     24  H   UNL     1      12.551 -10.347  -3.622  0.00  0.00    +0.000 HD
ATOM     25  H   UNL     1      12.184  -8.652  -3.244  0.00  0.00    +0.000 HD
ENDBRANCH  19  22
ENDBRANCH  16  19
ENDBRANCH   1  16
BRANCH   1  26
ATOM     26  O   UNL     1       8.131  -8.840  -0.570  0.00  0.00    +0.000 OA
ATOM     27  H   UNL     1       7.439  -9.165   0.030  0.00  0.00    +0.000 HD
ENDBRANCH   1  26
TORSDOF 8
ENDMDL
MODEL 4
REMARK VINA RESULT:    -3.941      2.259      4.206
REMARK INTER + INTRA:          -5.625
REMARK INTER:                  -5.405
REMARK INTRA:                  -0.220
REMARK UNBOUND:                -0.187
REMARK  Name = 11515
REMARK  8 active torsions:
REMARK  status: ('A' for Active; 'I' for Inactive)
REMARK    1  A    between atoms: O_1  and  C_2
REMARK    2  A    between atoms: C_2  and  C_3
REMARK    3  A    between atoms: C_2  and  C_4
REMARK    4  A    between atoms: C_3  and  C_5
REMARK    5  A    between atoms: C_4  and  C_6
REMARK    6  A    between atoms: C_5  and  C_7
REMARK    7  A    between atoms: C_6  and  C_8
REMARK    8  A    between atoms: C_7  and  C_9
REMARK                            x       y       z     vdW  Elec       q    Type
REMARK                         _______ _______ _______ _____ _____    ______ ____
ROOT
ATOM      1  C   UNL     1       1.437  -6.248  15.832  0.00  0.00    +0.000 C 
ATOM      2  H   UNL     1       2.490  -5.951  15.762  0.00  0.00    +0.000 HD
ENDROOT
BRANCH   1   3
ATOM      3  C   UNL     1       0.531  -5.064  15.478  0.00  0.00    +0.000 C 
ATOM      4  H   UNL     1       0.092  -5.223  14.485  0.00  0.00    +0.000 HD
ATOM      5  H   UNL     1      -0.296  -5.009  16.196  0.00  0.00    +0.000 HD
BRANCH   3   6
ATOM      6  C   UNL     1       1.295  -3.734  15.459  0.00  0.00    +0.000 C 
ATOM      7  H   UNL     1       0.625  -2.932  15.125  0.00  0.00    +0.000 HD
ATOM      8  H   UNL     1       1.629  -3.477  16.471  0.00  0.00    +0.000 HD
BRANCH   6   9
ATOM      9  C   UNL     1       2.509  -3.805  14.534  0.00  0.00    +0.000 C 
ATOM     10  H   UNL     1       3.035  -4.755  14.681  0.00  0.00    +0.000 HD
ATOM     11  H   UNL     1       2.184  -3.773  13.488  0.00  0.00    +0.000 HD
BRANCH   9  12
ATOM     12  C   UNL     1       3.475  -2.658  14.792  0.00  0.00    +0.000 C 
ATOM     13  H   UNL     1       4.513  -2.991  14.697  0.00  0.00    +0.000 HD
ATOM     14  H   UNL     1       3.308  -1.852  14.070  0.00  0.00    +0.000 HD
ATOM     15  H   UNL     1       3.336  -2.248  15.797  0.00  0.00    +0.000 HD
ENDBRANCH   9  12
ENDBRANCH   6   9
ENDBRANCH   3   6
ENDBRANCH   1   3
BRANCH   1  16
ATOM     16  C   UNL     1       1.155  -6.828  17.226  0.00  0.00    +0.000 C 
ATOM     17  H   UNL     1       1.893  -7.611  17.439  0.00  0.00    +0.000 HD
ATOM     18  H   UNL     1       1.315  -6.036  17.970  0.00  0.00    +0.000 HD
BRANCH  16  19
ATOM     19  C   UNL     1      -0.249  -7.393  17.447  0.00  0.00    +0.000 C 
ATOM     20  H   UNL     1      -0.665  -6.995  18.381  0.00  0.00    +0.000 HD
ATOM     21  H   UNL     1      -0.905  -7.053  16.639  0.00  0.00    +0.000 HD
BRANCH  19  22
ATOM     22  C   UNL     1      -0.289  -8.911  17.515  0.00  0.00    +0.000 C 
ATOM     23  H   UNL     1       0.392  -9.343  16.775  0.00  0.00    +0.000 HD
ATOM     24  H   UNL     1       0.013  -9.265  18.505  0.00  0.00    +0.000 HD
ATOM     25  H   UNL     1      -1.297  -9.285  17.309  0.00  0.00    +0.000 HD
ENDBRANCH  19  22
ENDBRANCH  16  19
ENDBRANCH   1  16
BRANCH   1  26
ATOM     26  O   UNL     1       1.221  -7.287  14.873  0.00  0.00    +0.000 OA
ATOM     27  H   UNL     1       0.353  -7.136  14.462  0.00  0.00    +0.000 HD
ENDBRANCH   1  26
TORSDOF 8
ENDMDL
MODEL 5
REMARK VINA RESULT:    -3.785     15.308     16.796
REMARK INTER + INTRA:          -5.410
REMARK INTER:                  -5.202
REMARK INTRA:                  -0.208
REMARK UNBOUND:                -0.187
REMARK  Name = 11515
REMARK  8 active torsions:
REMARK  status: ('A' for Active; 'I' for Inactive)
REMARK    1  A    between atoms: O_1  and  C_2
REMARK    2  A    between atoms: C_2  and  C_3
REMARK    3  A    between atoms: C_2  and  C_4
REMARK    4  A    between atoms: C_3  and  C_5
REMARK    5  A    between atoms: C_4  and  C_6
REMARK    6  A    between atoms: C_5  and  C_7
REMARK    7  A    between atoms: C_6  and  C_8
REMARK    8  A    between atoms: C_7  and  C_9
REMARK                            x       y       z     vdW  Elec       q    Type
REMARK                         _______ _______ _______ _____ _____    ______ ____
ROOT
ATOM      1  C   UNL     1      -7.171 -12.828   3.927  0.00  0.00    +0.000 C 
ATOM      2  H   UNL     1      -7.779 -13.713   4.148  0.00  0.00    +0.000 HD
ENDROOT
BRANCH   1   3
ATOM      3  C   UNL     1      -6.604 -12.922   2.506  0.00  0.00    +0.000 C 
ATOM      4  H   UNL     1      -6.274 -13.951   2.311  0.00  0.00    +0.000 HD
ATOM      5  H   UNL     1      -7.393 -12.689   1.781  0.00  0.00    +0.000 HD
BRANCH   3   6
ATOM      6  C   UNL     1      -5.408 -11.986   2.295  0.00  0.00    +0.000 C 
ATOM      7  H   UNL     1      -5.761 -10.948   2.239  0.00  0.00    +0.000 HD
ATOM      8  H   UNL     1      -4.724 -12.050   3.149  0.00  0.00    +0.000 HD
BRANCH   6   9
ATOM      9  C   UNL     1      -4.647 -12.337   1.017  0.00  0.00    +0.000 C 
ATOM     10  H   UNL     1      -4.020 -11.492   0.711  0.00  0.00    +0.000 HD
ATOM     11  H   UNL     1      -3.979 -13.186   1.202  0.00  0.00    +0.000 HD
BRANCH   9  12
ATOM     12  C   UNL     1      -5.596 -12.687  -0.119  0.00  0.00    +0.000 C 
ATOM     13  H   UNL     1      -6.603 -12.888   0.259  0.00  0.00    +0.000 HD
ATOM     14  H   UNL     1      -5.659 -11.856  -0.830  0.00  0.00    +0.000 HD
ATOM     15  H   UNL     1      -5.250 -13.572  -0.662  0.00  0.00    +0.000 HD
ENDBRANCH   9  12
ENDBRANCH   6   9
ENDBRANCH   3   6
ENDBRANCH   1   3
BRANCH   1  16
ATOM     16  C   UNL     1      -6.086 -12.664   5.000  0.00  0.00    +0.000 C 
ATOM     17  H   UNL     1      -5.106 -12.628   4.510  0.00  0.00    +0.000 HD
ATOM     18  H   UNL     1      -6.227 -11.691   5.490  0.00  0.00    +0.000 HD
BRANCH  16  19
ATOM     19  C   UNL     1      -6.057 -13.731   6.095  0.00  0.00    +0.000 C 
ATOM     20  H   UNL     1      -6.159 -14.726   5.645  0.00  0.00    +0.000 HD
ATOM     21  H   UNL     1      -5.081 -13.709   6.593  0.00  0.00    +0.000 HD
BRANCH  19  22
ATOM     22  C   UNL     1      -7.151 -13.564   7.137  0.00  0.00    +0.000 C 
ATOM     23  H   UNL     1      -7.439 -12.511   7.220  0.00  0.00    +0.000 HD
ATOM     24  H   UNL     1      -8.040 -14.141   6.866  0.00  0.00    +0.000 HD
ATOM     25  H   UNL     1      -6.808 -13.901   8.121  0.00  0.00    +0.000 HD
ENDBRANCH  19  22
ENDBRANCH  16  19
ENDBRANCH   1  16
BRANCH   1  26
ATOM     26  O   UNL     1      -8.033 -11.689   3.996  0.00  0.00    +0.000 OA
ATOM     27  H   UNL     1      -7.825 -11.207   4.814  0.00  0.00    +0.000 HD
ENDBRANCH   1  26
TORSDOF 8
ENDMDL
MODEL 6
REMARK VINA RESULT:    -3.726      2.297      3.265
REMARK INTER + INTRA:          -5.328
REMARK INTER:                  -4.927
REMARK INTRA:                  -0.401
REMARK UNBOUND:                -0.187
REMARK  Name = 11515
REMARK  8 active torsions:
REMARK  status: ('A' for Active; 'I' for Inactive)
REMARK    1  A    between atoms: O_1  and  C_2
REMARK    2  A    between atoms: C_2  and  C_3
REMARK    3  A    between atoms: C_2  and  C_4
REMARK    4  A    between atoms: C_3  and  C_5
REMARK    5  A    between atoms: C_4  and  C_6
REMARK    6  A    between atoms: C_5  and  C_7
REMARK    7  A    between atoms: C_6  and  C_8
REMARK    8  A    between atoms: C_7  and  C_9
REMARK                            x       y       z     vdW  Elec       q    Type
REMARK                         _______ _______ _______ _____ _____    ______ ____
ROOT
ATOM      1  C   UNL     1       0.664  -5.875  16.152  0.00  0.00    +0.000 C 
ATOM      2  H   UNL     1       1.260  -5.667  17.048  0.00  0.00    +0.000 HD
ENDROOT
BRANCH   1   3
ATOM      3  C   UNL     1       1.011  -7.263  15.601  0.00  0.00    +0.000 C 
ATOM      4  H   UNL     1       1.653  -7.791  16.316  0.00  0.00    +0.000 HD
ATOM      5  H   UNL     1       0.092  -7.852  15.490  0.00  0.00    +0.000 HD
BRANCH   3   6
ATOM      6  C   UNL     1       1.746  -7.188  14.258  0.00  0.00    +0.000 C 
ATOM      7  H   UNL     1       1.127  -7.642  13.474  0.00  0.00    +0.000 HD
ATOM      8  H   UNL     1       1.909  -6.141  13.975  0.00  0.00    +0.000 HD
BRANCH   6   9
ATOM      9  C   UNL     1       3.096  -7.903  14.323  0.00  0.00    +0.000 C 
ATOM     10  H   UNL     1       3.880  -7.194  14.614  0.00  0.00    +0.000 HD
ATOM     11  H   UNL     1       3.065  -8.686  15.090  0.00  0.00    +0.000 HD
BRANCH   9  12
ATOM     12  C   UNL     1       3.462  -8.528  12.985  0.00  0.00    +0.000 C 
ATOM     13  H   UNL     1       4.426  -9.041  13.043  0.00  0.00    +0.000 HD
ATOM     14  H   UNL     1       2.703  -9.259  12.689  0.00  0.00    +0.000 HD
ATOM     15  H   UNL     1       3.524  -7.767  12.202  0.00  0.00    +0.000 HD
ENDBRANCH   9  12
ENDBRANCH   6   9
ENDBRANCH   3   6
ENDBRANCH   1   3
BRANCH   1  16
ATOM     16  C   UNL     1       0.863  -4.752  15.125  0.00  0.00    +0.000 C 
ATOM     17  H   UNL     1       1.199  -5.192  14.179  0.00  0.00    +0.000 HD
ATOM     18  H   UNL     1      -0.112  -4.287  14.925  0.00  0.00    +0.000 HD
BRANCH  16  19
ATOM     19  C   UNL     1       1.830  -3.638  15.527  0.00  0.00    +0.000 C 
ATOM     20  H   UNL     1       2.152  -3.087  14.635  0.00  0.00    +0.000 HD
ATOM     21  H   UNL     1       1.307  -2.921  16.169  0.00  0.00    +0.000 HD
BRANCH  19  22
ATOM     22  C   UNL     1       3.070  -4.140  16.250  0.00  0.00    +0.000 C 
ATOM     23  H   UNL     1       3.897  -3.435  16.123  0.00  0.00    +0.000 HD
ATOM     24  H   UNL     1       2.878  -4.252  17.321  0.00  0.00    +0.000 HD
ATOM     25  H   UNL     1       3.386  -5.111  15.854  0.00  0.00    +0.000 HD
ENDBRANCH  19  22
ENDBRANCH  16  19
ENDBRANCH   1  16
BRANCH   1  26
ATOM     26  O   UNL     1      -0.712  -5.874  16.543  0.00  0.00    +0.000 OA
ATOM     27  H   UNL     1      -1.036  -6.790  16.495  0.00  0.00    +0.000 HD
ENDBRANCH   1  26
TORSDOF 8
ENDMDL
MODEL 7
REMARK VINA RESULT:    -3.713     27.394     28.860
REMARK INTER + INTRA:          -5.312
REMARK INTER:                  -4.699
REMARK INTRA:                  -0.612
REMARK UNBOUND:                -0.187
REMARK  Name = 11515
REMARK  8 active torsions:
REMARK  status: ('A' for Active; 'I' for Inactive)
REMARK    1  A    between atoms: O_1  and  C_2
REMARK    2  A    between atoms: C_2  and  C_3
REMARK    3  A    between atoms: C_2  and  C_4
REMARK    4  A    between atoms: C_3  and  C_5
REMARK    5  A    between atoms: C_4  and  C_6
REMARK    6  A    between atoms: C_5  and  C_7
REMARK    7  A    between atoms: C_6  and  C_8
REMARK    8  A    between atoms: C_7  and  C_9
REMARK                            x       y       z     vdW  Elec       q    Type
REMARK                         _______ _______ _______ _____ _____    ______ ____
ROOT
ATOM      1  C   UNL     1       7.005  13.222  -5.943  0.00  0.00    +0.000 C 
ATOM      2  H   UNL     1       7.723  12.405  -6.081  0.00  0.00    +0.000 HD
ENDROOT
BRANCH   1   3
ATOM      3  C   UNL     1       7.382  14.409  -6.837  0.00  0.00    +0.000 C 
ATOM      4  H   UNL     1       6.559  14.620  -7.532  0.00  0.00    +0.000 HD
ATOM      5  H   UNL     1       7.523  15.303  -6.218  0.00  0.00    +0.000 HD
BRANCH   3   6
ATOM      6  C   UNL     1       8.648  14.138  -7.659  0.00  0.00    +0.000 C 
ATOM      7  H   UNL     1       8.382  14.037  -8.719  0.00  0.00    +0.000 HD
ATOM      8  H   UNL     1       9.338  14.986  -7.578  0.00  0.00    +0.000 HD
BRANCH   6   9
ATOM      9  C   UNL     1       9.356  12.869  -7.185  0.00  0.00    +0.000 C 
ATOM     10  H   UNL     1       8.725  12.337  -6.464  0.00  0.00    +0.000 HD
ATOM     11  H   UNL     1       9.520  12.195  -8.033  0.00  0.00    +0.000 HD
BRANCH   9  12
ATOM     12  C   UNL     1      10.694  13.187  -6.534  0.00  0.00    +0.000 C 
ATOM     13  H   UNL     1      11.026  12.362  -5.897  0.00  0.00    +0.000 HD
ATOM     14  H   UNL     1      11.458  13.355  -7.300  0.00  0.00    +0.000 HD
ATOM     15  H   UNL     1      10.626  14.091  -5.920  0.00  0.00    +0.000 HD
ENDBRANCH   9  12
ENDBRANCH   6   9
ENDBRANCH   3   6
ENDBRANCH   1   3
BRANCH   1  16
ATOM     16  C   UNL     1       6.920  13.591  -4.455  0.00  0.00    +0.000 C 
ATOM     17  H   UNL     1       6.521  14.609  -4.365  0.00  0.00    +0.000 HD
ATOM     18  H   UNL     1       6.191  12.926  -3.973  0.00  0.00    +0.000 HD
BRANCH  16  19
ATOM     19  C   UNL     1       8.225  13.496  -3.663  0.00  0.00    +0.000 C 
ATOM     20  H   UNL     1       9.002  14.093  -4.156  0.00  0.00    +0.000 HD
ATOM     21  H   UNL     1       8.075  13.932  -2.669  0.00  0.00    +0.000 HD
BRANCH  19  22
ATOM     22  C   UNL     1       8.741  12.074  -3.510  0.00  0.00    +0.000 C 
ATOM     23  H   UNL     1       9.174  11.932  -2.515  0.00  0.00    +0.000 HD
ATOM     24  H   UNL     1       7.930  11.350  -3.636  0.00  0.00    +0.000 HD
ATOM     25  H   UNL     1       9.515  11.857  -4.253  0.00  0.00    +0.000 HD
ENDBRANCH  19  22
ENDBRANCH  16  19
ENDBRANCH   1  16
BRANCH   1  26
ATOM     26  O   UNL     1       5.722  12.738  -6.349  0.00  0.00    +0.000 OA
ATOM     27  H   UNL     1       5.675  12.797  -7.319  0.00  0.00    +0.000 HD
ENDBRANCH   1  26
TORSDOF 8
ENDMDL
MODEL 8
REMARK VINA RESULT:    -3.691     15.779     17.035
REMARK INTER + INTRA:          -5.280
REMARK INTER:                  -4.750
REMARK INTRA:                  -0.530
REMARK UNBOUND:                -0.187
REMARK  Name = 11515
REMARK  8 active torsions:
REMARK  status: ('A' for Active; 'I' for Inactive)
REMARK    1  A    between atoms: O_1  and  C_2
REMARK    2  A    between atoms: C_2  and  C_3
REMARK    3  A    between atoms: C_2  and  C_4
REMARK    4  A    between atoms: C_3  and  C_5
REMARK    5  A    between atoms: C_4  and  C_6
REMARK    6  A    between atoms: C_5  and  C_7
REMARK    7  A    between atoms: C_6  and  C_8
REMARK    8  A    between atoms: C_7  and  C_9
REMARK                            x       y       z     vdW  Elec       q    Type
REMARK                         _______ _______ _______ _____ _____    ______ ____
ROOT
ATOM      1  C   UNL     1      -2.082  10.602  12.928  0.00  0.00    +0.000 C 
ATOM      2  H   UNL     1      -2.478  11.587  13.201  0.00  0.00    +0.000 HD
ENDROOT
BRANCH   1   3
ATOM      3  C   UNL     1      -0.553  10.602  13.037  0.00  0.00    +0.000 C 
ATOM      4  H   UNL     1      -0.209  11.593  13.360  0.00  0.00    +0.000 HD
ATOM      5  H   UNL     1      -0.242   9.883  13.804  0.00  0.00    +0.000 HD
BRANCH   3   6
ATOM      6  C   UNL     1       0.125  10.269  11.703  0.00  0.00    +0.000 C 
ATOM      7  H   UNL     1       0.506   9.240  11.732  0.00  0.00    +0.000 HD
ATOM      8  H   UNL     1      -0.605  10.321  10.886  0.00  0.00    +0.000 HD
BRANCH   6   9
ATOM      9  C   UNL     1       1.275  11.232  11.409  0.00  0.00    +0.000 C 
ATOM     10  H   UNL     1       2.022  11.176  12.208  0.00  0.00    +0.000 HD
ATOM     11  H   UNL     1       1.774  10.943  10.477  0.00  0.00    +0.000 HD
BRANCH   9  12
ATOM     12  C   UNL     1       0.783  12.667  11.289  0.00  0.00    +0.000 C 
ATOM     13  H   UNL     1      -0.226  12.771  11.698  0.00  0.00    +0.000 HD
ATOM     14  H   UNL     1       1.446  13.341  11.840  0.00  0.00    +0.000 HD
ATOM     15  H   UNL     1       0.765  12.988  10.243  0.00  0.00    +0.000 HD
ENDBRANCH   9  12
ENDBRANCH   6   9
ENDBRANCH   3   6
ENDBRANCH   1   3
BRANCH   1  16
ATOM     16  C   UNL     1      -2.587  10.209  11.533  0.00  0.00    +0.000 C 
ATOM     17  H   UNL     1      -1.723  10.034  10.880  0.00  0.00    +0.000 HD
ATOM     18  H   UNL     1      -3.118   9.251  11.612  0.00  0.00    +0.000 HD
BRANCH  16  19
ATOM     19  C   UNL     1      -3.530  11.204  10.854  0.00  0.00    +0.000 C 
ATOM     20  H   UNL     1      -4.051  10.713  10.023  0.00  0.00    +0.000 HD
ATOM     21  H   UNL     1      -4.300  11.515  11.569  0.00  0.00    +0.000 HD
BRANCH  19  22
ATOM     22  C   UNL     1      -2.825  12.438  10.314  0.00  0.00    +0.000 C 
ATOM     23  H   UNL     1      -1.867  12.161   9.862  0.00  0.00    +0.000 HD
ATOM     24  H   UNL     1      -3.433  12.931   9.550  0.00  0.00    +0.000 HD
ATOM     25  H   UNL     1      -2.628  13.157  11.115  0.00  0.00    +0.000 HD
ENDBRANCH  19  22
ENDBRANCH  16  19
ENDBRANCH   1  16
BRANCH   1  26
ATOM     26  O   UNL     1      -2.603   9.656  13.866  0.00  0.00    +0.000 OA
ATOM     27  H   UNL     1      -3.054   8.956  13.364  0.00  0.00    +0.000 HD
ENDBRANCH   1  26
TORSDOF 8
ENDMDL
MODEL 9
REMARK VINA RESULT:    -3.684     26.821     28.342
REMARK INTER + INTRA:          -5.271
REMARK INTER:                  -5.084
REMARK INTRA:                  -0.187
REMARK UNBOUND:                -0.187
REMARK  Name = 11515
REMARK  8 active torsions:
REMARK  status: ('A' for Active; 'I' for Inactive)
REMARK    1  A    between atoms: O_1  and  C_2
REMARK    2  A    between atoms: C_2  and  C_3
REMARK    3  A    between atoms: C_2  and  C_4
REMARK    4  A    between atoms: C_3  and  C_5
REMARK    5  A    between atoms: C_4  and  C_6
REMARK    6  A    between atoms: C_5  and  C_7
REMARK    7  A    between atoms: C_6  and  C_8
REMARK    8  A    between atoms: C_7  and  C_9
REMARK                            x       y       z     vdW  Elec       q    Type
REMARK                         _______ _______ _______ _____ _____    ______ ____
ROOT
ATOM      1  C   UNL     1       9.906  13.052  -4.550  0.00  0.00    +0.000 C 
ATOM      2  H   UNL     1      10.217  14.017  -4.964  0.00  0.00    +0.000 HD
ENDROOT
BRANCH   1   3
ATOM      3  C   UNL     1       8.954  12.345  -5.522  0.00  0.00    +0.000 C 
ATOM      4  H   UNL     1       8.826  11.300  -5.215  0.00  0.00    +0.000 HD
ATOM      5  H   UNL     1       7.968  12.822  -5.479  0.00  0.00    +0.000 HD
BRANCH   3   6
ATOM      6  C   UNL     1       9.479  12.362  -6.963  0.00  0.00    +0.000 C 
ATOM      7  H   UNL     1      10.543  12.098  -6.969  0.00  0.00    +0.000 HD
ATOM      8  H   UNL     1       8.955  11.610  -7.564  0.00  0.00    +0.000 HD
BRANCH   6   9
ATOM      9  C   UNL     1       9.289  13.736  -7.606  0.00  0.00    +0.000 C 
ATOM     10  H   UNL     1       8.349  13.758  -8.169  0.00  0.00    +0.000 HD
ATOM     11  H   UNL     1       9.219  14.505  -6.828  0.00  0.00    +0.000 HD
BRANCH   9  12
ATOM     12  C   UNL     1      10.437  14.076  -8.544  0.00  0.00    +0.000 C 
ATOM     13  H   UNL     1      11.354  14.280  -7.983  0.00  0.00    +0.000 HD
ATOM     14  H   UNL     1      10.632  13.240  -9.224  0.00  0.00    +0.000 HD
ATOM     15  H   UNL     1      10.201  14.957  -9.149  0.00  0.00    +0.000 HD
ENDBRANCH   9  12
ENDBRANCH   6   9
ENDBRANCH   3   6
ENDBRANCH   1   3
BRANCH   1  16
ATOM     16  C   UNL     1       9.298  13.258  -3.155  0.00  0.00    +0.000 C 
ATOM     17  H   UNL     1      10.081  13.624  -2.479  0.00  0.00    +0.000 HD
ATOM     18  H   UNL     1       8.544  14.054  -3.219  0.00  0.00    +0.000 HD
BRANCH  16  19
ATOM     19  C   UNL     1       8.628  12.036  -2.526  0.00  0.00    +0.000 C 
ATOM     20  H   UNL     1       8.002  11.532  -3.271  0.00  0.00    +0.000 HD
ATOM     21  H   UNL     1       9.399  11.319  -2.224  0.00  0.00    +0.000 HD
BRANCH  19  22
ATOM     22  C   UNL     1       7.762  12.371  -1.322  0.00  0.00    +0.000 C 
ATOM     23  H   UNL     1       8.377  12.447  -0.420  0.00  0.00    +0.000 HD
ATOM     24  H   UNL     1       7.247  13.326  -1.465  0.00  0.00    +0.000 HD
ATOM     25  H   UNL     1       7.008  11.596  -1.156  0.00  0.00    +0.000 HD
ENDBRANCH  19  22
ENDBRANCH  16  19
ENDBRANCH   1  16
BRANCH   1  26
ATOM     26  O   UNL     1      11.081  12.249  -4.403  0.00  0.00    +0.000 OA
ATOM     27  H   UNL     1      10.839  11.329  -4.602  0.00  0.00    +0.000 HD
ENDBRANCH   1  26
TORSDOF 8
ENDMDL
MODEL 10
REMARK VINA RESULT:    -3.672     24.956     25.799
REMARK INTER + INTRA:          -5.255
REMARK INTER:                  -4.790
REMARK INTRA:                  -0.465
REMARK UNBOUND:                -0.187
REMARK  Name = 11515
REMARK  8 active torsions:
REMARK  status: ('A' for Active; 'I' for Inactive)
REMARK    1  A    between atoms: O_1  and  C_2
REMARK    2  A    between atoms: C_2  and  C_3
REMARK    3  A    between atoms: C_2  and  C_4
REMARK    4  A    between atoms: C_3  and  C_5
REMARK    5  A    between atoms: C_4  and  C_6
REMARK    6  A    between atoms: C_5  and  C_7
REMARK    7  A    between atoms: C_6  and  C_8
REMARK    8  A    between atoms: C_7  and  C_9
REMARK                            x       y       z     vdW  Elec       q    Type
REMARK                         _______ _______ _______ _____ _____    ______ ____
ROOT
ATOM      1  C   UNL     1      -3.999  -7.297 -10.389  0.00  0.00    +0.000 C 
ATOM      2  H   UNL     1      -4.780  -7.784 -10.984  0.00  0.00    +0.000 HD
ENDROOT
BRANCH   1   3
ATOM      3  C   UNL     1      -3.047  -8.350  -9.811  0.00  0.00    +0.000 C 
ATOM      4  H   UNL     1      -2.323  -8.650 -10.579  0.00  0.00    +0.000 HD
ATOM      5  H   UNL     1      -2.479  -7.913  -8.980  0.00  0.00    +0.000 HD
BRANCH   3   6
ATOM      6  C   UNL     1      -3.788  -9.604  -9.332  0.00  0.00    +0.000 C 
ATOM      7  H   UNL     1      -4.840  -9.547  -9.639  0.00  0.00    +0.000 HD
ATOM      8  H   UNL     1      -3.361 -10.497  -9.803  0.00  0.00    +0.000 HD
BRANCH   6   9
ATOM      9  C   UNL     1      -3.705  -9.752  -7.813  0.00  0.00    +0.000 C 
ATOM     10  H   UNL     1      -3.361 -10.759  -7.554  0.00  0.00    +0.000 HD
ATOM     11  H   UNL     1      -2.971  -9.044  -7.409  0.00  0.00    +0.000 HD
BRANCH   9  12
ATOM     12  C   UNL     1      -5.054  -9.504  -7.154  0.00  0.00    +0.000 C 
ATOM     13  H   UNL     1      -5.518 -10.446  -6.846  0.00  0.00    +0.000 HD
ATOM     14  H   UNL     1      -4.931  -8.878  -6.264  0.00  0.00    +0.000 HD
ATOM     15  H   UNL     1      -5.736  -8.991  -7.838  0.00  0.00    +0.000 HD
ENDBRANCH   9  12
ENDBRANCH   6   9
ENDBRANCH   3   6
ENDBRANCH   1   3
BRANCH   1  16
ATOM     16  C   UNL     1      -4.644  -6.412  -9.313  0.00  0.00    +0.000 C 
ATOM     17  H   UNL     1      -4.294  -6.741  -8.327  0.00  0.00    +0.000 HD
ATOM     18  H   UNL     1      -4.282  -5.384  -9.447  0.00  0.00    +0.000 HD
BRANCH  16  19
ATOM     19  C   UNL     1      -6.173  -6.365  -9.309  0.00  0.00    +0.000 C 
ATOM     20  H   UNL     1      -6.525  -5.675 -10.085  0.00  0.00    +0.000 HD
ATOM     21  H   UNL     1      -6.564  -7.356  -9.567  0.00  0.00    +0.000 HD
BRANCH  19  22
ATOM     22  C   UNL     1      -6.763  -5.928  -7.978  0.00  0.00    +0.000 C 
ATOM     23  H   UNL     1      -6.387  -4.938  -7.702  0.00  0.00    +0.000 HD
ATOM     24  H   UNL     1      -7.855  -5.874  -8.035  0.00  0.00    +0.000 HD
ATOM     25  H   UNL     1      -6.494  -6.630  -7.182  0.00  0.00    +0.000 HD
ENDBRANCH  19  22
ENDBRANCH  16  19
ENDBRANCH   1  16
BRANCH   1  26
ATOM     26  O   UNL     1      -3.256  -6.449 -11.269  0.00  0.00    +0.000 OA
ATOM     27  H   UNL     1      -3.775  -6.337 -12.083  0.00  0.00    +0.000 HD
ENDBRANCH   1  26
TORSDOF 8
ENDMDL
