MODEL 1
REMARK VINA RESULT:    -4.037      0.000      0.000
REMARK INTER + INTRA:          -5.357
REMARK INTER:                  -5.170
REMARK INTRA:                  -0.187
REMARK UNBOUND:                -0.258
REMARK  Name = 9862
REMARK  6 active torsions:
REMARK  status: ('A' for Active; 'I' for Inactive)
REMARK    1  A    between atoms: C_2  and  C_3
REMARK    2  A    between atoms: C_2  and  C_4
REMARK    3  A    between atoms: C_3  and  C_6
REMARK    4  A    between atoms: C_5  and  C_7
REMARK    5  A    between atoms: C_5  and  C_8
REMARK    6  A    between atoms: C_6  and  C_9
REMARK                            x       y       z     vdW  Elec       q    Type
REMARK                         _______ _______ _______ _____ _____    ______ ____
ROOT
ATOM      1  C   UNL     1       4.921 -12.148  -0.471  0.00  0.00    +0.000 C 
ATOM      2  H   UNL     1       5.061 -11.082  -0.687  0.00  0.00    +0.000 HD
ATOM      3  H   UNL     1       4.167 -12.493  -1.189  0.00  0.00    +0.000 HD
ENDROOT
BRANCH   1   4
ATOM      4  C   UNL     1       6.228 -12.910  -0.679  0.00  0.00    +0.000 C 
ATOM      5  H   UNL     1       6.467 -12.966  -1.748  0.00  0.00    +0.000 HD
ATOM      6  H   UNL     1       6.135 -13.931  -0.291  0.00  0.00    +0.000 HD
BRANCH   4   8
ATOM      7  O   UNL     1       7.636 -11.049  -0.046  0.00  0.00    +0.000 OA
ATOM      8  C   UNL     1       7.402 -12.255   0.026  0.00  0.00    +0.000 C 
BRANCH   8   9
ATOM      9  C   UNL     1       8.285 -13.169   0.836  0.00  0.00    +0.000 C 
ATOM     10  H   UNL     1       7.947 -13.177   1.876  0.00  0.00    +0.000 HD
ATOM     11  H   UNL     1       8.227 -14.186   0.438  0.00  0.00    +0.000 HD
ATOM     12  H   UNL     1       9.320 -12.825   0.778  0.00  0.00    +0.000 HD
ENDBRANCH   8   9
ENDBRANCH   4   8
ENDBRANCH   1   4
BRANCH   1  13
ATOM     13  C   UNL     1       4.386 -12.352   0.917  0.00  0.00    +0.000 C 
ATOM     14  C   UNL     1       3.292 -11.793   1.469  0.00  0.00    +0.000 C 
ATOM     15  H   UNL     1       4.968 -13.046   1.521  0.00  0.00    +0.000 HD
BRANCH  14  16
ATOM     16  C   UNL     1       2.883 -12.144   2.874  0.00  0.00    +0.000 C 
ATOM     17  H   UNL     1       2.280 -13.057   2.877  0.00  0.00    +0.000 HD
ATOM     18  H   UNL     1       2.288 -11.333   3.308  0.00  0.00    +0.000 HD
ATOM     19  H   UNL     1       3.743 -12.312   3.530  0.00  0.00    +0.000 HD
ENDBRANCH  14  16
BRANCH  14  20
ATOM     20  C   UNL     1       2.396 -10.795   0.790  0.00  0.00    +0.000 C 
ATOM     21  H   UNL     1       2.314 -10.955  -0.288  0.00  0.00    +0.000 HD
ATOM     22  H   UNL     1       2.785  -9.782   0.936  0.00  0.00    +0.000 HD
ATOM     23  H   UNL     1       1.389 -10.844   1.215  0.00  0.00    +0.000 HD
ENDBRANCH  14  20
ENDBRANCH   1  13
TORSDOF 6
ENDMDL
MODEL 2
REMARK VINA RESULT:    -4.036     13.586     15.225
REMARK INTER + INTRA:          -5.355
REMARK INTER:                  -5.205
REMARK INTRA:                  -0.151
REMARK UNBOUND:                -0.258
REMARK  Name = 9862
REMARK  6 active torsions:
REMARK  status: ('A' for Active; 'I' for Inactive)
REMARK    1  A    between atoms: C_2  and  C_3
REMARK    2  A    between atoms: C_2  and  C_4
REMARK    3  A    between atoms: C_3  and  C_6
REMARK    4  A    between atoms: C_5  and  C_7
REMARK    5  A    between atoms: C_5  and  C_8
REMARK    6  A    between atoms: C_6  and  C_9
REMARK                            x       y       z     vdW  Elec       q    Type
REMARK                         _______ _______ _______ _____ _____    ______ ____
ROOT
ATOM      1  C   UNL     1       2.129  -7.063  14.094  0.00  0.00    +0.000 C 
ATOM      2  H   UNL     1       2.425  -6.039  13.836  0.00  0.00    +0.000 HD
ATOM      3  H   UNL     1       1.798  -7.516  13.151  0.00  0.00    +0.000 HD
ENDROOT
BRANCH   1   4
ATOM      4  C   UNL     1       3.318  -7.836  14.658  0.00  0.00    +0.000 C 
ATOM      5  H   UNL     1       3.016  -8.396  15.552  0.00  0.00    +0.000 HD
ATOM      6  H   UNL     1       4.120  -7.143  14.939  0.00  0.00    +0.000 HD
BRANCH   4   8
ATOM      7  O   UNL     1       3.908  -8.623  12.449  0.00  0.00    +0.000 OA
ATOM      8  C   UNL     1       3.893  -8.828  13.662  0.00  0.00    +0.000 C 
BRANCH   8   9
ATOM      9  C   UNL     1       4.457 -10.099  14.242  0.00  0.00    +0.000 C 
ATOM     10  H   UNL     1       5.107  -9.859  15.087  0.00  0.00    +0.000 HD
ATOM     11  H   UNL     1       3.643 -10.739  14.592  0.00  0.00    +0.000 HD
ATOM     12  H   UNL     1       5.021 -10.633  13.473  0.00  0.00    +0.000 HD
ENDBRANCH   8   9
ENDBRANCH   4   8
ENDBRANCH   1   4
BRANCH   1  13
ATOM     13  C   UNL     1       0.973  -7.064  15.054  0.00  0.00    +0.000 C 
ATOM     14  C   UNL     1       0.441  -6.010  15.703  0.00  0.00    +0.000 C 
ATOM     15  H   UNL     1       0.530  -8.044  15.216  0.00  0.00    +0.000 HD
BRANCH  14  16
ATOM     16  C   UNL     1      -0.748  -6.193  16.607  0.00  0.00    +0.000 C 
ATOM     17  H   UNL     1      -0.451  -6.713  17.524  0.00  0.00    +0.000 HD
ATOM     18  H   UNL     1      -1.518  -6.787  16.104  0.00  0.00    +0.000 HD
ATOM     19  H   UNL     1      -1.202  -5.240  16.899  0.00  0.00    +0.000 HD
ENDBRANCH  14  16
BRANCH  14  20
ATOM     20  C   UNL     1       0.947  -4.598  15.618  0.00  0.00    +0.000 C 
ATOM     21  H   UNL     1       2.003  -4.535  15.343  0.00  0.00    +0.000 HD
ATOM     22  H   UNL     1       0.838  -4.100  16.588  0.00  0.00    +0.000 HD
ATOM     23  H   UNL     1       0.372  -4.036  14.875  0.00  0.00    +0.000 HD
ENDBRANCH  14  20
ENDBRANCH   1  13
TORSDOF 6
ENDMDL
MODEL 3
REMARK VINA RESULT:    -3.903      5.671      7.327
REMARK INTER + INTRA:          -5.188
REMARK INTER:                  -4.842
REMARK INTRA:                  -0.346
REMARK UNBOUND:                -0.258
REMARK  Name = 9862
REMARK  6 active torsions:
REMARK  status: ('A' for Active; 'I' for Inactive)
REMARK    1  A    between atoms: C_2  and  C_3
REMARK    2  A    between atoms: C_2  and  C_4
REMARK    3  A    between atoms: C_3  and  C_6
REMARK    4  A    between atoms: C_5  and  C_7
REMARK    5  A    between atoms: C_5  and  C_8
REMARK    6  A    between atoms: C_6  and  C_9
REMARK                            x       y       z     vdW  Elec       q    Type
REMARK                         _______ _______ _______ _____ _____    ______ ____
ROOT
ATOM      1  C   UNL     1      12.111  -9.767  -2.546  0.00  0.00    +0.000 C 
ATOM      2  H   UNL     1      12.115 -10.853  -2.401  0.00  0.00    +0.000 HD
ATOM      3  H   UNL     1      13.080  -9.418  -2.167  0.00  0.00    +0.000 HD
ENDROOT
BRANCH   1   4
ATOM      4  C   UNL     1      11.976  -9.426  -4.028  0.00  0.00    +0.000 C 
ATOM      5  H   UNL     1      12.908  -8.986  -4.402  0.00  0.00    +0.000 HD
ATOM      6  H   UNL     1      11.168  -8.700  -4.177  0.00  0.00    +0.000 HD
BRANCH   4   8
ATOM      7  O   UNL     1      11.296 -10.564  -6.051  0.00  0.00    +0.000 OA
ATOM      8  C   UNL     1      11.663 -10.645  -4.879  0.00  0.00    +0.000 C 
BRANCH   8   9
ATOM      9  C   UNL     1      11.829 -11.983  -4.208  0.00  0.00    +0.000 C 
ATOM     10  H   UNL     1      12.876 -12.124  -3.925  0.00  0.00    +0.000 HD
ATOM     11  H   UNL     1      11.211 -12.024  -3.307  0.00  0.00    +0.000 HD
ATOM     12  H   UNL     1      11.514 -12.776  -4.890  0.00  0.00    +0.000 HD
ENDBRANCH   8   9
ENDBRANCH   4   8
ENDBRANCH   1   4
BRANCH   1  13
ATOM     13  C   UNL     1      11.022  -9.119  -1.737  0.00  0.00    +0.000 C 
ATOM     14  C   UNL     1       9.926  -9.703  -1.215  0.00  0.00    +0.000 C 
ATOM     15  H   UNL     1      11.171  -8.056  -1.562  0.00  0.00    +0.000 HD
BRANCH  14  16
ATOM     16  C   UNL     1       8.953  -8.900  -0.395  0.00  0.00    +0.000 C 
ATOM     17  H   UNL     1       9.173  -9.010   0.671  0.00  0.00    +0.000 HD
ATOM     18  H   UNL     1       7.929  -9.246  -0.577  0.00  0.00    +0.000 HD
ATOM     19  H   UNL     1       8.988  -7.831  -0.633  0.00  0.00    +0.000 HD
ENDBRANCH  14  16
BRANCH  14  20
ATOM     20  C   UNL     1       9.553 -11.148  -1.386  0.00  0.00    +0.000 C 
ATOM     21  H   UNL     1       9.423 -11.674  -0.437  0.00  0.00    +0.000 HD
ATOM     22  H   UNL     1      10.336 -11.676  -1.941  0.00  0.00    +0.000 HD
ATOM     23  H   UNL     1       8.616 -11.231  -1.947  0.00  0.00    +0.000 HD
ENDBRANCH  14  20
ENDBRANCH   1  13
TORSDOF 6
ENDMDL
MODEL 4
REMARK VINA RESULT:    -3.859     13.663     15.094
REMARK INTER + INTRA:          -5.132
REMARK INTER:                  -4.733
REMARK INTRA:                  -0.399
REMARK UNBOUND:                -0.258
REMARK  Name = 9862
REMARK  6 active torsions:
REMARK  status: ('A' for Active; 'I' for Inactive)
REMARK    1  A    between atoms: C_2  and  C_3
REMARK    2  A    between atoms: C_2  and  C_4
REMARK    3  A    between atoms: C_3  and  C_6
REMARK    4  A    between atoms: C_5  and  C_7
REMARK    5  A    between atoms: C_5  and  C_8
REMARK    6  A    between atoms: C_6  and  C_9
REMARK                            x       y       z     vdW  Elec       q    Type
REMARK                         _______ _______ _______ _____ _____    ______ ____
ROOT
ATOM      1  C   UNL     1      -3.388  -6.747  -9.780  0.00  0.00    +0.000 C 
ATOM      2  H   UNL     1      -2.638  -5.947  -9.751  0.00  0.00    +0.000 HD
ATOM      3  H   UNL     1      -3.662  -6.851 -10.838  0.00  0.00    +0.000 HD
ENDROOT
BRANCH   1   4
ATOM      4  C   UNL     1      -2.795  -8.054  -9.261  0.00  0.00    +0.000 C 
ATOM      5  H   UNL     1      -2.809  -8.067  -8.165  0.00  0.00    +0.000 HD
ATOM      6  H   UNL     1      -1.755  -8.155  -9.595  0.00  0.00    +0.000 HD
BRANCH   4   8
ATOM      7  O   UNL     1      -4.055 -10.099  -8.987  0.00  0.00    +0.000 OA
ATOM      8  C   UNL     1      -3.557  -9.273  -9.750  0.00  0.00    +0.000 C 
BRANCH   8   9
ATOM      9  C   UNL     1      -3.676  -9.426 -11.245  0.00  0.00    +0.000 C 
ATOM     10  H   UNL     1      -3.963  -8.470 -11.688  0.00  0.00    +0.000 HD
ATOM     11  H   UNL     1      -2.714  -9.735 -11.662  0.00  0.00    +0.000 HD
ATOM     12  H   UNL     1      -4.423 -10.189 -11.476  0.00  0.00    +0.000 HD
ENDBRANCH   8   9
ENDBRANCH   4   8
ENDBRANCH   1   4
BRANCH   1  13
ATOM     13  C   UNL     1      -4.617  -6.361  -9.007  0.00  0.00    +0.000 C 
ATOM     14  C   UNL     1      -5.893  -6.354  -9.438  0.00  0.00    +0.000 C 
ATOM     15  H   UNL     1      -4.421  -6.068  -7.977  0.00  0.00    +0.000 HD
BRANCH  14  16
ATOM     16  C   UNL     1      -7.011  -5.970  -8.506  0.00  0.00    +0.000 C 
ATOM     17  H   UNL     1      -6.626  -5.824  -7.492  0.00  0.00    +0.000 HD
ATOM     18  H   UNL     1      -7.770  -6.758  -8.481  0.00  0.00    +0.000 HD
ATOM     19  H   UNL     1      -7.507  -5.041  -8.809  0.00  0.00    +0.000 HD
ENDBRANCH  14  16
BRANCH  14  20
ATOM     20  C   UNL     1      -6.336  -6.700 -10.832  0.00  0.00    +0.000 C 
ATOM     21  H   UNL     1      -7.419  -6.638 -10.967  0.00  0.00    +0.000 HD
ATOM     22  H   UNL     1      -6.040  -7.726 -11.076  0.00  0.00    +0.000 HD
ATOM     23  H   UNL     1      -5.868  -6.024 -11.554  0.00  0.00    +0.000 HD
ENDBRANCH  14  20
ENDBRANCH   1  13
TORSDOF 6
ENDMDL
MODEL 5
REMARK VINA RESULT:    -3.846      3.271      4.842
REMARK INTER + INTRA:          -5.115
REMARK INTER:                  -4.939
REMARK INTRA:                  -0.176
REMARK UNBOUND:                -0.258
REMARK  Name = 9862
REMARK  6 active torsions:
REMARK  status: ('A' for Active; 'I' for Inactive)
REMARK    1  A    between atoms: C_2  and  C_3
REMARK    2  A    between atoms: C_2  and  C_4
REMARK    3  A    between atoms: C_3  and  C_6
REMARK    4  A    between atoms: C_5  and  C_7
REMARK    5  A    between atoms: C_5  and  C_8
REMARK    6  A    between atoms: C_6  and  C_9
REMARK                            x       y       z     vdW  Elec       q    Type
REMARK                         _______ _______ _______ _____ _____    ______ ____
ROOT
ATOM      1  C   UNL     1       2.918 -13.584   3.379  0.00  0.00    +0.000 C 
ATOM      2  H   UNL     1       3.973 -13.801   3.175  0.00  0.00    +0.000 HD
ATOM      3  H   UNL     1       2.801 -13.703   4.464  0.00  0.00    +0.000 HD
ENDROOT
BRANCH   1   4
ATOM      4  C   UNL     1       2.579 -12.153   2.971  0.00  0.00    +0.000 C 
ATOM      5  H   UNL     1       2.902 -11.450   3.748  0.00  0.00    +0.000 HD
ATOM      6  H   UNL     1       1.496 -12.045   2.837  0.00  0.00    +0.000 HD
BRANCH   4   8
ATOM      7  O   UNL     1       2.711 -11.003   0.847  0.00  0.00    +0.000 OA
ATOM      8  C   UNL     1       3.247 -11.745   1.670  0.00  0.00    +0.000 C 
BRANCH   8   9
ATOM      9  C   UNL     1       4.626 -12.302   1.429  0.00  0.00    +0.000 C 
ATOM     10  H   UNL     1       5.216 -11.583   0.854  0.00  0.00    +0.000 HD
ATOM     11  H   UNL     1       5.124 -12.482   2.386  0.00  0.00    +0.000 HD
ATOM     12  H   UNL     1       4.550 -13.247   0.887  0.00  0.00    +0.000 HD
ENDBRANCH   8   9
ENDBRANCH   4   8
ENDBRANCH   1   4
BRANCH   1  13
ATOM     13  C   UNL     1       2.020 -14.574   2.692  0.00  0.00    +0.000 C 
ATOM     14  C   UNL     1       2.010 -15.913   2.833  0.00  0.00    +0.000 C 
ATOM     15  H   UNL     1       1.298 -14.124   2.014  0.00  0.00    +0.000 HD
BRANCH  14  16
ATOM     16  C   UNL     1       1.009 -16.751   2.086  0.00  0.00    +0.000 C 
ATOM     17  H   UNL     1       0.581 -17.512   2.747  0.00  0.00    +0.000 HD
ATOM     18  H   UNL     1       1.493 -17.256   1.242  0.00  0.00    +0.000 HD
ATOM     19  H   UNL     1       0.182 -16.156   1.685  0.00  0.00    +0.000 HD
ENDBRANCH  14  16
BRANCH  14  20
ATOM     20  C   UNL     1       2.954 -16.697   3.701  0.00  0.00    +0.000 C 
ATOM     21  H   UNL     1       3.252 -17.652   3.260  0.00  0.00    +0.000 HD
ATOM     22  H   UNL     1       2.482 -16.922   4.663  0.00  0.00    +0.000 HD
ATOM     23  H   UNL     1       3.863 -16.116   3.890  0.00  0.00    +0.000 HD
ENDBRANCH  14  20
ENDBRANCH   1  13
TORSDOF 6
ENDMDL
MODEL 6
REMARK VINA RESULT:    -3.803     10.328     11.606
REMARK INTER + INTRA:          -5.061
REMARK INTER:                  -4.747
REMARK INTRA:                  -0.314
REMARK UNBOUND:                -0.258
REMARK  Name = 9862
REMARK  6 active torsions:
REMARK  status: ('A' for Active; 'I' for Inactive)
REMARK    1  A    between atoms: C_2  and  C_3
REMARK    2  A    between atoms: C_2  and  C_4
REMARK    3  A    between atoms: C_3  and  C_6
REMARK    4  A    between atoms: C_5  and  C_7
REMARK    5  A    between atoms: C_5  and  C_8
REMARK    6  A    between atoms: C_6  and  C_9
REMARK                            x       y       z     vdW  Elec       q    Type
REMARK                         _______ _______ _______ _____ _____    ______ ____
ROOT
ATOM      1  C   UNL     1      -6.654 -12.380   2.925  0.00  0.00    +0.000 C 
ATOM      2  H   UNL     1      -7.439 -11.679   2.618  0.00  0.00    +0.000 HD
ATOM      3  H   UNL     1      -6.924 -13.339   2.466  0.00  0.00    +0.000 HD
ENDROOT
BRANCH   1   4
ATOM      4  C   UNL     1      -5.294 -11.917   2.407  0.00  0.00    +0.000 C 
ATOM      5  H   UNL     1      -4.509 -12.165   3.131  0.00  0.00    +0.000 HD
ATOM      6  H   UNL     1      -5.296 -10.831   2.259  0.00  0.00    +0.000 HD
BRANCH   4   8
ATOM      7  O   UNL     1      -4.898 -11.939   0.022  0.00  0.00    +0.000 OA
ATOM      8  C   UNL     1      -4.925 -12.562   1.083  0.00  0.00    +0.000 C 
BRANCH   8   9
ATOM      9  C   UNL     1      -4.585 -14.029   1.131  0.00  0.00    +0.000 C 
ATOM     10  H   UNL     1      -3.890 -14.216   1.953  0.00  0.00    +0.000 HD
ATOM     11  H   UNL     1      -5.494 -14.614   1.294  0.00  0.00    +0.000 HD
ATOM     12  H   UNL     1      -4.135 -14.331   0.182  0.00  0.00    +0.000 HD
ENDBRANCH   8   9
ENDBRANCH   4   8
ENDBRANCH   1   4
BRANCH   1  13
ATOM     13  C   UNL     1      -6.638 -12.553   4.417  0.00  0.00    +0.000 C 
ATOM     14  C   UNL     1      -6.330 -13.664   5.114  0.00  0.00    +0.000 C 
ATOM     15  H   UNL     1      -6.902 -11.655   4.972  0.00  0.00    +0.000 HD
BRANCH  14  16
ATOM     16  C   UNL     1      -6.333 -13.645   6.619  0.00  0.00    +0.000 C 
ATOM     17  H   UNL     1      -5.334 -13.875   7.003  0.00  0.00    +0.000 HD
ATOM     18  H   UNL     1      -7.035 -14.392   7.005  0.00  0.00    +0.000 HD
ATOM     19  H   UNL     1      -6.629 -12.672   7.024  0.00  0.00    +0.000 HD
ENDBRANCH  14  16
BRANCH  14  20
ATOM     20  C   UNL     1      -5.974 -14.992   4.509  0.00  0.00    +0.000 C 
ATOM     21  H   UNL     1      -5.431 -14.903   3.564  0.00  0.00    +0.000 HD
ATOM     22  H   UNL     1      -6.884 -15.567   4.302  0.00  0.00    +0.000 HD
ATOM     23  H   UNL     1      -5.352 -15.567   5.202  0.00  0.00    +0.000 HD
ENDBRANCH  14  20
ENDBRANCH   1  13
TORSDOF 6
ENDMDL
MODEL 7
REMARK VINA RESULT:    -3.723     24.096     25.073
REMARK INTER + INTRA:          -4.960
REMARK INTER:                  -4.602
REMARK INTRA:                  -0.358
REMARK UNBOUND:                -0.258
REMARK  Name = 9862
REMARK  6 active torsions:
REMARK  status: ('A' for Active; 'I' for Inactive)
REMARK    1  A    between atoms: C_2  and  C_3
REMARK    2  A    between atoms: C_2  and  C_4
REMARK    3  A    between atoms: C_3  and  C_6
REMARK    4  A    between atoms: C_5  and  C_7
REMARK    5  A    between atoms: C_5  and  C_8
REMARK    6  A    between atoms: C_6  and  C_9
REMARK                            x       y       z     vdW  Elec       q    Type
REMARK                         _______ _______ _______ _____ _____    ______ ____
ROOT
ATOM      1  C   UNL     1       5.855  11.675   0.509  0.00  0.00    +0.000 C 
ATOM      2  H   UNL     1       4.892  11.773  -0.007  0.00  0.00    +0.000 HD
ATOM      3  H   UNL     1       6.198  10.656   0.294  0.00  0.00    +0.000 HD
ENDROOT
BRANCH   1   4
ATOM      4  C   UNL     1       6.857  12.691  -0.035  0.00  0.00    +0.000 C 
ATOM      5  H   UNL     1       7.635  12.181  -0.615  0.00  0.00    +0.000 HD
ATOM      6  H   UNL     1       7.338  13.226   0.793  0.00  0.00    +0.000 HD
BRANCH   4   8
ATOM      7  O   UNL     1       6.170  13.613  -2.162  0.00  0.00    +0.000 OA
ATOM      8  C   UNL     1       6.207  13.725  -0.937  0.00  0.00    +0.000 C 
BRANCH   8   9
ATOM      9  C   UNL     1       5.596  14.917  -0.248  0.00  0.00    +0.000 C 
ATOM     10  H   UNL     1       5.640  14.776   0.835  0.00  0.00    +0.000 HD
ATOM     11  H   UNL     1       6.154  15.821  -0.509  0.00  0.00    +0.000 HD
ATOM     12  H   UNL     1       4.560  15.036  -0.570  0.00  0.00    +0.000 HD
ENDBRANCH   8   9
ENDBRANCH   4   8
ENDBRANCH   1   4
BRANCH   1  13
ATOM     13  C   UNL     1       5.686  11.818   1.995  0.00  0.00    +0.000 C 
ATOM     14  C   UNL     1       4.634  12.335   2.659  0.00  0.00    +0.000 C 
ATOM     15  H   UNL     1       6.526  11.441   2.576  0.00  0.00    +0.000 HD
BRANCH  14  16
ATOM     16  C   UNL     1       4.623  12.365   4.164  0.00  0.00    +0.000 C 
ATOM     17  H   UNL     1       4.684  11.348   4.564  0.00  0.00    +0.000 HD
ATOM     18  H   UNL     1       3.698  12.827   4.525  0.00  0.00    +0.000 HD
ATOM     19  H   UNL     1       5.461  12.935   4.577  0.00  0.00    +0.000 HD
ENDBRANCH  14  16
BRANCH  14  20
ATOM     20  C   UNL     1       3.411  12.924   2.015  0.00  0.00    +0.000 C 
ATOM     21  H   UNL     1       3.359  14.012   2.106  0.00  0.00    +0.000 HD
ATOM     22  H   UNL     1       2.508  12.519   2.484  0.00  0.00    +0.000 HD
ATOM     23  H   UNL     1       3.389  12.674   0.949  0.00  0.00    +0.000 HD
ENDBRANCH  14  20
ENDBRANCH   1  13
TORSDOF 6
ENDMDL
MODEL 8
REMARK VINA RESULT:    -3.638     13.341     15.619
REMARK INTER + INTRA:          -4.853
REMARK INTER:                  -4.718
REMARK INTRA:                  -0.135
REMARK UNBOUND:                -0.258
REMARK  Name = 9862
REMARK  6 active torsions:
REMARK  status: ('A' for Active; 'I' for Inactive)
REMARK    1  A    between atoms: C_2  and  C_3
REMARK    2  A    between atoms: C_2  and  C_4
REMARK    3  A    between atoms: C_3  and  C_6
REMARK    4  A    between atoms: C_5  and  C_7
REMARK    5  A    between atoms: C_5  and  C_8
REMARK    6  A    between atoms: C_6  and  C_9
REMARK                            x       y       z     vdW  Elec       q    Type
REMARK                         _______ _______ _______ _____ _____    ______ ____
ROOT
ATOM      1  C   UNL     1      -8.792 -14.618   6.903  0.00  0.00    +0.000 C 
ATOM      2  H   UNL     1      -9.642 -13.948   7.075  0.00  0.00    +0.000 HD
ATOM      3  H   UNL     1      -8.766 -14.782   5.818  0.00  0.00    +0.000 HD
ENDROOT
BRANCH   1   4
ATOM      4  C   UNL     1      -7.493 -13.963   7.364  0.00  0.00    +0.000 C 
ATOM      5  H   UNL     1      -6.849 -14.703   7.854  0.00  0.00    +0.000 HD
ATOM      6  H   UNL     1      -7.709 -13.163   8.083  0.00  0.00    +0.000 HD
BRANCH   4   8
ATOM      7  O   UNL     1      -7.238 -12.690   5.324  0.00  0.00    +0.000 OA
ATOM      8  C   UNL     1      -6.709 -13.352   6.216  0.00  0.00    +0.000 C 
BRANCH   8   9
ATOM      9  C   UNL     1      -5.223 -13.600   6.222  0.00  0.00    +0.000 C 
ATOM     10  H   UNL     1      -4.894 -13.877   5.217  0.00  0.00    +0.000 HD
ATOM     11  H   UNL     1      -4.698 -12.690   6.528  0.00  0.00    +0.000 HD
ATOM     12  H   UNL     1      -4.987 -14.399   6.929  0.00  0.00    +0.000 HD
ENDBRANCH   8   9
ENDBRANCH   4   8
ENDBRANCH   1   4
BRANCH   1  13
ATOM     13  C   UNL     1      -9.004 -15.943   7.579  0.00  0.00    +0.000 C 
ATOM     14  C   UNL     1     -10.118 -16.384   8.195  0.00  0.00    +0.000 C 
ATOM     15  H   UNL     1      -8.142 -16.605   7.542  0.00  0.00    +0.000 HD
BRANCH  14  16
ATOM     16  C   UNL     1     -10.163 -17.765   8.792  0.00  0.00    +0.000 C 
ATOM     17  H   UNL     1      -9.843 -18.508   8.054  0.00  0.00    +0.000 HD
ATOM     18  H   UNL     1     -11.183 -18.007   9.109  0.00  0.00    +0.000 HD
ATOM     19  H   UNL     1      -9.511 -17.864   9.666  0.00  0.00    +0.000 HD
ENDBRANCH  14  16
BRANCH  14  20
ATOM     20  C   UNL     1     -11.384 -15.592   8.363  0.00  0.00    +0.000 C 
ATOM     21  H   UNL     1     -11.874 -15.359   7.415  0.00  0.00    +0.000 HD
ATOM     22  H   UNL     1     -11.167 -14.637   8.855  0.00  0.00    +0.000 HD
ATOM     23  H   UNL     1     -12.096 -16.146   8.983  0.00  0.00    +0.000 HD
ENDBRANCH  14  20
ENDBRANCH   1  13
TORSDOF 6
ENDMDL
MODEL 9
REMARK VINA RESULT:    -3.569      8.210     10.163
REMARK INTER + INTRA:          -4.766
REMARK INTER:                  -4.460
REMARK INTRA:                  -0.306
REMARK UNBOUND:                -0.258
REMARK  Name = 9862
REMARK  6 active torsions:
REMARK  status: ('A' for Active; 'I' for Inactive)
REMARK    1  A    between atoms: C_2  and  C_3
REMARK    2  A    between atoms: C_2  and  C_4
REMARK    3  A    between atoms: C_3  and  C_6
REMARK    4  A    between atoms: C_5  and  C_7
REMARK    5  A    between atoms: C_5  and  C_8
REMARK    6  A    between atoms: C_6  and  C_9
REMARK                            x       y       z     vdW  Elec       q    Type
REMARK                         _______ _______ _______ _____ _____    ______ ____
ROOT
ATOM      1  C   UNL     1      14.300  -9.991  -4.258  0.00  0.00    +0.000 C 
ATOM      2  H   UNL     1      13.928 -10.786  -4.914  0.00  0.00    +0.000 HD
ATOM      3  H   UNL     1      15.192 -10.406  -3.774  0.00  0.00    +0.000 HD
ENDROOT
BRANCH   1   4
ATOM      4  C   UNL     1      14.674  -8.757  -5.075  0.00  0.00    +0.000 C 
ATOM      5  H   UNL     1      15.762  -8.618  -5.074  0.00  0.00    +0.000 HD
ATOM      6  H   UNL     1      14.212  -7.862  -4.641  0.00  0.00    +0.000 HD
BRANCH   4   8
ATOM      7  O   UNL     1      15.001  -8.810  -7.470  0.00  0.00    +0.000 OA
ATOM      8  C   UNL     1      14.220  -8.856  -6.521  0.00  0.00    +0.000 C 
BRANCH   8   9
ATOM      9  C   UNL     1      12.738  -9.018  -6.741  0.00  0.00    +0.000 C 
ATOM     10  H   UNL     1      12.281  -8.036  -6.891  0.00  0.00    +0.000 HD
ATOM     11  H   UNL     1      12.562  -9.630  -7.630  0.00  0.00    +0.000 HD
ATOM     12  H   UNL     1      12.291  -9.513  -5.876  0.00  0.00    +0.000 HD
ENDBRANCH   8   9
ENDBRANCH   4   8
ENDBRANCH   1   4
BRANCH   1  13
ATOM     13  C   UNL     1      13.294  -9.654  -3.194  0.00  0.00    +0.000 C 
ATOM     14  C   UNL     1      12.068 -10.185  -3.022  0.00  0.00    +0.000 C 
ATOM     15  H   UNL     1      13.629  -8.896  -2.488  0.00  0.00    +0.000 HD
BRANCH  14  16
ATOM     16  C   UNL     1      11.203  -9.749  -1.870  0.00  0.00    +0.000 C 
ATOM     17  H   UNL     1      10.172  -9.601  -2.204  0.00  0.00    +0.000 HD
ATOM     18  H   UNL     1      11.574  -8.806  -1.454  0.00  0.00    +0.000 HD
ATOM     19  H   UNL     1      11.186 -10.485  -1.058  0.00  0.00    +0.000 HD
ENDBRANCH  14  16
BRANCH  14  20
ATOM     20  C   UNL     1      11.440 -11.216  -3.917  0.00  0.00    +0.000 C 
ATOM     21  H   UNL     1      11.517 -10.968  -4.978  0.00  0.00    +0.000 HD
ATOM     22  H   UNL     1      10.373 -11.313  -3.687  0.00  0.00    +0.000 HD
ATOM     23  H   UNL     1      11.917 -12.189  -3.763  0.00  0.00    +0.000 HD
ENDBRANCH  14  20
ENDBRANCH   1  13
TORSDOF 6
ENDMDL
MODEL 10
REMARK VINA RESULT:    -3.558     24.504     25.659
REMARK INTER + INTRA:          -4.752
REMARK INTER:                  -4.494
REMARK INTRA:                  -0.258
REMARK UNBOUND:                -0.258
REMARK  Name = 9862
REMARK  6 active torsions:
REMARK  status: ('A' for Active; 'I' for Inactive)
REMARK    1  A    between atoms: C_2  and  C_3
REMARK    2  A    between atoms: C_2  and  C_4
REMARK    3  A    between atoms: C_3  and  C_6
REMARK    4  A    between atoms: C_5  and  C_7
REMARK    5  A    between atoms: C_5  and  C_8
REMARK    6  A    between atoms: C_6  and  C_9
REMARK                            x       y       z     vdW  Elec       q    Type
REMARK                         _______ _______ _______ _____ _____    ______ ____
ROOT
ATOM      1  C   UNL     1       5.755  12.507   4.110  0.00  0.00    +0.000 C 
ATOM      2  H   UNL     1       6.241  13.488   4.165  0.00  0.00    +0.000 HD
ATOM      3  H   UNL     1       6.397  11.831   4.690  0.00  0.00    +0.000 HD
ENDROOT
BRANCH   1   4
ATOM      4  C   UNL     1       4.362  12.566   4.731  0.00  0.00    +0.000 C 
ATOM      5  H   UNL     1       4.434  12.546   5.825  0.00  0.00    +0.000 HD
ATOM      6  H   UNL     1       3.769  11.702   4.409  0.00  0.00    +0.000 HD
BRANCH   4   8
ATOM      7  O   UNL     1       4.162  14.871   4.028  0.00  0.00    +0.000 OA
ATOM      8  C   UNL     1       3.602  13.820   4.338  0.00  0.00    +0.000 C 
BRANCH   8   9
ATOM      9  C   UNL     1       2.099  13.714   4.343  0.00  0.00    +0.000 C 
ATOM     10  H   UNL     1       1.661  14.714   4.294  0.00  0.00    +0.000 HD
ATOM     11  H   UNL     1       1.766  13.139   3.473  0.00  0.00    +0.000 HD
ATOM     12  H   UNL     1       1.771  13.202   5.251  0.00  0.00    +0.000 HD
ENDBRANCH   8   9
ENDBRANCH   4   8
ENDBRANCH   1   4
BRANCH   1  13
ATOM     13  C   UNL     1       5.699  12.011   2.693  0.00  0.00    +0.000 C 
ATOM     14  C   UNL     1       6.249  12.576   1.600  0.00  0.00    +0.000 C 
ATOM     15  H   UNL     1       5.152  11.079   2.569  0.00  0.00    +0.000 HD
BRANCH  14  16
ATOM     16  C   UNL     1       6.121  11.915   0.254  0.00  0.00    +0.000 C 
ATOM     17  H   UNL     1       5.805  10.874   0.371  0.00  0.00    +0.000 HD
ATOM     18  H   UNL     1       7.083  11.930  -0.268  0.00  0.00    +0.000 HD
ATOM     19  H   UNL     1       5.387  12.414  -0.388  0.00  0.00    +0.000 HD
ENDBRANCH  14  16
BRANCH  14  20
ATOM     20  C   UNL     1       7.009  13.872   1.588  0.00  0.00    +0.000 C 
ATOM     21  H   UNL     1       6.650  14.573   0.831  0.00  0.00    +0.000 HD
ATOM     22  H   UNL     1       8.067  13.686   1.376  0.00  0.00    +0.000 HD
ATOM     23  H   UNL     1       6.933  14.362   2.564  0.00  0.00    +0.000 HD
ENDBRANCH  14  20
ENDBRANCH   1  13
TORSDOF 6
ENDMDL
