MODEL 1
REMARK VINA RESULT:    -5.205      0.000      0.000
REMARK INTER + INTRA:          -5.746
REMARK INTER:                  -5.669
REMARK INTRA:                  -0.077
REMARK UNBOUND:                -0.085
REMARK  Name = 7410
REMARK  2 active torsions:
REMARK  status: ('A' for Active; 'I' for Inactive)
REMARK    1  A    between atoms: C_2  and  C_5
REMARK    2  A    between atoms: C_5  and  C_9
REMARK                            x       y       z     vdW  Elec       q    Type
REMARK                         _______ _______ _______ _____ _____    ______ ____
ROOT
ATOM      1  C   UNL     1       1.586  -4.506  15.023  0.00  0.00    +0.000 A 
ATOM      2  C   UNL     1       0.541  -4.774  15.908  0.00  0.00    +0.000 A 
ATOM      3  C   UNL     1       2.162  -5.544  14.290  0.00  0.00    +0.000 A 
ATOM      4  C   UNL     1       0.073  -6.079  16.059  0.00  0.00    +0.000 A 
ATOM      5  C   UNL     1       1.693  -6.849  14.442  0.00  0.00    +0.000 A 
ATOM      6  C   UNL     1       0.648  -7.117  15.326  0.00  0.00    +0.000 A 
ATOM      7  H   UNL     1       0.062  -4.001  16.499  0.00  0.00    +0.000 HD
ATOM      8  H   UNL     1       2.977  -5.359  13.596  0.00  0.00    +0.000 HD
ATOM      9  H   UNL     1      -0.741  -6.288  16.748  0.00  0.00    +0.000 HD
ATOM     10  H   UNL     1       2.141  -7.657  13.871  0.00  0.00    +0.000 HD
ATOM     11  H   UNL     1       0.283  -8.133  15.444  0.00  0.00    +0.000 HD
ENDROOT
BRANCH   1  13
ATOM     12  O   UNL     1       1.332  -2.160  14.751  0.00  0.00    +0.000 OA
ATOM     13  C   UNL     1       2.075  -3.147  14.866  0.00  0.00    +0.000 C 
BRANCH  13  14
ATOM     14  C   UNL     1       3.574  -2.901  14.837  0.00  0.00    +0.000 C 
ATOM     15  H   UNL     1       3.829  -2.026  15.440  0.00  0.00    +0.000 HD
ATOM     16  H   UNL     1       3.886  -2.697  13.807  0.00  0.00    +0.000 HD
ATOM     17  H   UNL     1       4.114  -3.789  15.177  0.00  0.00    +0.000 HD
ENDBRANCH  13  14
ENDBRANCH   1  13
TORSDOF 2
ENDMDL
MODEL 2
REMARK VINA RESULT:    -5.068      1.961      3.952
REMARK INTER + INTRA:          -5.597
REMARK INTER:                  -5.518
REMARK INTRA:                  -0.079
REMARK UNBOUND:                -0.085
REMARK  Name = 7410
REMARK  2 active torsions:
REMARK  status: ('A' for Active; 'I' for Inactive)
REMARK    1  A    between atoms: C_2  and  C_5
REMARK    2  A    between atoms: C_5  and  C_9
REMARK                            x       y       z     vdW  Elec       q    Type
REMARK                         _______ _______ _______ _____ _____    ______ ____
ROOT
ATOM      1  C   UNL     1       1.588  -5.127  15.333  0.00  0.00    +0.000 A 
ATOM      2  C   UNL     1       2.954  -5.382  15.199  0.00  0.00    +0.000 A 
ATOM      3  C   UNL     1       1.118  -3.815  15.305  0.00  0.00    +0.000 A 
ATOM      4  C   UNL     1       3.848  -4.324  15.037  0.00  0.00    +0.000 A 
ATOM      5  C   UNL     1       2.013  -2.756  15.143  0.00  0.00    +0.000 A 
ATOM      6  C   UNL     1       3.378  -3.011  15.009  0.00  0.00    +0.000 A 
ATOM      7  H   UNL     1       3.366  -6.385  15.214  0.00  0.00    +0.000 HD
ATOM      8  H   UNL     1       0.060  -3.592  15.408  0.00  0.00    +0.000 HD
ATOM      9  H   UNL     1       4.911  -4.522  14.932  0.00  0.00    +0.000 HD
ATOM     10  H   UNL     1       1.647  -1.734  15.121  0.00  0.00    +0.000 HD
ATOM     11  H   UNL     1       4.074  -2.188  14.883  0.00  0.00    +0.000 HD
ENDROOT
BRANCH   1  13
ATOM     12  O   UNL     1       0.757  -7.311  14.902  0.00  0.00    +0.000 OA
ATOM     13  C   UNL     1       0.656  -6.230  15.502  0.00  0.00    +0.000 C 
BRANCH  13  14
ATOM     14  C   UNL     1      -0.511  -6.068  16.461  0.00  0.00    +0.000 C 
ATOM     15  H   UNL     1      -0.582  -6.932  17.126  0.00  0.00    +0.000 HD
ATOM     16  H   UNL     1      -1.443  -6.012  15.887  0.00  0.00    +0.000 HD
ATOM     17  H   UNL     1      -0.414  -5.138  17.028  0.00  0.00    +0.000 HD
ENDBRANCH  13  14
ENDBRANCH   1  13
TORSDOF 2
ENDMDL
MODEL 3
REMARK VINA RESULT:    -5.045     19.100     20.092
REMARK INTER + INTRA:          -5.572
REMARK INTER:                  -5.491
REMARK INTRA:                  -0.081
REMARK UNBOUND:                -0.085
REMARK  Name = 7410
REMARK  2 active torsions:
REMARK  status: ('A' for Active; 'I' for Inactive)
REMARK    1  A    between atoms: C_2  and  C_5
REMARK    2  A    between atoms: C_5  and  C_9
REMARK                            x       y       z     vdW  Elec       q    Type
REMARK                         _______ _______ _______ _____ _____    ______ ____
ROOT
ATOM      1  C   UNL     1      10.992  -9.917  -1.981  0.00  0.00    +0.000 A 
ATOM      2  C   UNL     1      10.773  -8.616  -1.527  0.00  0.00    +0.000 A 
ATOM      3  C   UNL     1      10.089 -10.930  -1.658  0.00  0.00    +0.000 A 
ATOM      4  C   UNL     1       9.650  -8.329  -0.750  0.00  0.00    +0.000 A 
ATOM      5  C   UNL     1       8.966 -10.642  -0.881  0.00  0.00    +0.000 A 
ATOM      6  C   UNL     1       8.747  -9.341  -0.427  0.00  0.00    +0.000 A 
ATOM      7  H   UNL     1      11.447  -7.797  -1.752  0.00  0.00    +0.000 HD
ATOM      8  H   UNL     1      10.239 -11.950  -2.001  0.00  0.00    +0.000 HD
ATOM      9  H   UNL     1       9.479  -7.316  -0.396  0.00  0.00    +0.000 HD
ATOM     10  H   UNL     1       8.263 -11.430  -0.630  0.00  0.00    +0.000 HD
ATOM     11  H   UNL     1       7.873  -9.117   0.177  0.00  0.00    +0.000 HD
ENDROOT
BRANCH   1  13
ATOM     12  O   UNL     1      13.241  -9.615  -2.685  0.00  0.00    +0.000 OA
ATOM     13  C   UNL     1      12.161 -10.218  -2.790  0.00  0.00    +0.000 C 
BRANCH  13  14
ATOM     14  C   UNL     1      12.076 -11.326  -3.826  0.00  0.00    +0.000 C 
ATOM     15  H   UNL     1      12.610 -11.040  -4.736  0.00  0.00    +0.000 HD
ATOM     16  H   UNL     1      11.026 -11.489  -4.092  0.00  0.00    +0.000 HD
ATOM     17  H   UNL     1      12.464 -12.263  -3.415  0.00  0.00    +0.000 HD
ENDBRANCH  13  14
ENDBRANCH   1  13
TORSDOF 2
ENDMDL
MODEL 4
REMARK VINA RESULT:    -4.752     21.893     23.481
REMARK INTER + INTRA:          -5.254
REMARK INTER:                  -5.184
REMARK INTRA:                  -0.070
REMARK UNBOUND:                -0.085
REMARK  Name = 7410
REMARK  2 active torsions:
REMARK  status: ('A' for Active; 'I' for Inactive)
REMARK    1  A    between atoms: C_2  and  C_5
REMARK    2  A    between atoms: C_5  and  C_9
REMARK                            x       y       z     vdW  Elec       q    Type
REMARK                         _______ _______ _______ _____ _____    ______ ____
ROOT
ATOM      1  C   UNL     1       6.611  12.765   0.150  0.00  0.00    +0.000 A 
ATOM      2  C   UNL     1       7.022  13.715   1.085  0.00  0.00    +0.000 A 
ATOM      3  C   UNL     1       5.858  11.664   0.558  0.00  0.00    +0.000 A 
ATOM      4  C   UNL     1       6.679  13.564   2.429  0.00  0.00    +0.000 A 
ATOM      5  C   UNL     1       5.515  11.513   1.902  0.00  0.00    +0.000 A 
ATOM      6  C   UNL     1       5.926  12.463   2.838  0.00  0.00    +0.000 A 
ATOM      7  H   UNL     1       7.608  14.587   0.815  0.00  0.00    +0.000 HD
ATOM      8  H   UNL     1       5.527  10.912  -0.153  0.00  0.00    +0.000 HD
ATOM      9  H   UNL     1       6.998  14.303   3.158  0.00  0.00    +0.000 HD
ATOM     10  H   UNL     1       4.929  10.656   2.220  0.00  0.00    +0.000 HD
ATOM     11  H   UNL     1       5.660  12.346   3.884  0.00  0.00    +0.000 HD
ENDROOT
BRANCH   1  13
ATOM     12  O   UNL     1       6.287  13.567  -2.063  0.00  0.00    +0.000 OA
ATOM     13  C   UNL     1       6.968  12.922  -1.250  0.00  0.00    +0.000 C 
BRANCH  13  14
ATOM     14  C   UNL     1       8.239  12.268  -1.765  0.00  0.00    +0.000 C 
ATOM     15  H   UNL     1       8.313  11.240  -1.405  0.00  0.00    +0.000 HD
ATOM     16  H   UNL     1       9.106  12.818  -1.382  0.00  0.00    +0.000 HD
ATOM     17  H   UNL     1       8.275  12.311  -2.857  0.00  0.00    +0.000 HD
ENDBRANCH  13  14
ENDBRANCH   1  13
TORSDOF 2
ENDMDL
MODEL 5
REMARK VINA RESULT:    -4.659     23.293     23.911
REMARK INTER + INTRA:          -5.152
REMARK INTER:                  -5.068
REMARK INTRA:                  -0.084
REMARK UNBOUND:                -0.085
REMARK  Name = 7410
REMARK  2 active torsions:
REMARK  status: ('A' for Active; 'I' for Inactive)
REMARK    1  A    between atoms: C_2  and  C_5
REMARK    2  A    between atoms: C_5  and  C_9
REMARK                            x       y       z     vdW  Elec       q    Type
REMARK                         _______ _______ _______ _____ _____    ______ ____
ROOT
ATOM      1  C   UNL     1      15.560   9.857   2.663  0.00  0.00    +0.000 A 
ATOM      2  C   UNL     1      14.665  10.655   1.950  0.00  0.00    +0.000 A 
ATOM      3  C   UNL     1      15.624   9.951   4.053  0.00  0.00    +0.000 A 
ATOM      4  C   UNL     1      13.834  11.547   2.628  0.00  0.00    +0.000 A 
ATOM      5  C   UNL     1      14.792  10.843   4.731  0.00  0.00    +0.000 A 
ATOM      6  C   UNL     1      13.897  11.641   4.018  0.00  0.00    +0.000 A 
ATOM      7  H   UNL     1      14.580  10.617   0.869  0.00  0.00    +0.000 HD
ATOM      8  H   UNL     1      16.313   9.339   4.629  0.00  0.00    +0.000 HD
ATOM      9  H   UNL     1      13.137  12.168   2.074  0.00  0.00    +0.000 HD
ATOM     10  H   UNL     1      14.841  10.916   5.813  0.00  0.00    +0.000 HD
ATOM     11  H   UNL     1      13.250  12.335   4.546  0.00  0.00    +0.000 HD
ENDROOT
BRANCH   1  13
ATOM     12  O   UNL     1      16.613   8.960   0.731  0.00  0.00    +0.000 OA
ATOM     13  C   UNL     1      16.427   8.927   1.957  0.00  0.00    +0.000 C 
BRANCH  13  14
ATOM     14  C   UNL     1      17.152   7.851   2.747  0.00  0.00    +0.000 C 
ATOM     15  H   UNL     1      17.304   8.172   3.780  0.00  0.00    +0.000 HD
ATOM     16  H   UNL     1      18.138   7.681   2.302  0.00  0.00    +0.000 HD
ATOM     17  H   UNL     1      16.601   6.907   2.701  0.00  0.00    +0.000 HD
ENDBRANCH  13  14
ENDBRANCH   1  13
TORSDOF 2
ENDMDL
MODEL 6
REMARK VINA RESULT:    -4.552      2.462      3.397
REMARK INTER + INTRA:          -5.037
REMARK INTER:                  -4.961
REMARK INTRA:                  -0.075
REMARK UNBOUND:                -0.085
REMARK  Name = 7410
REMARK  2 active torsions:
REMARK  status: ('A' for Active; 'I' for Inactive)
REMARK    1  A    between atoms: C_2  and  C_5
REMARK    2  A    between atoms: C_5  and  C_9
REMARK                            x       y       z     vdW  Elec       q    Type
REMARK                         _______ _______ _______ _____ _____    ______ ____
ROOT
ATOM      1  C   UNL     1       1.755  -6.649  14.727  0.00  0.00    +0.000 A 
ATOM      2  C   UNL     1       1.829  -5.276  14.964  0.00  0.00    +0.000 A 
ATOM      3  C   UNL     1       0.702  -7.392  15.259  0.00  0.00    +0.000 A 
ATOM      4  C   UNL     1       0.849  -4.648  15.734  0.00  0.00    +0.000 A 
ATOM      5  C   UNL     1      -0.278  -6.764  16.029  0.00  0.00    +0.000 A 
ATOM      6  C   UNL     1      -0.204  -5.391  16.266  0.00  0.00    +0.000 A 
ATOM      7  H   UNL     1       2.628  -4.656  14.572  0.00  0.00    +0.000 HD
ATOM      8  H   UNL     1       0.624  -8.463  15.088  0.00  0.00    +0.000 HD
ATOM      9  H   UNL     1       0.906  -3.579  15.919  0.00  0.00    +0.000 HD
ATOM     10  H   UNL     1      -1.097  -7.344  16.443  0.00  0.00    +0.000 HD
ATOM     11  H   UNL     1      -0.966  -4.902  16.864  0.00  0.00    +0.000 HD
ENDROOT
BRANCH   1  13
ATOM     12  O   UNL     1       2.521  -8.028  12.951  0.00  0.00    +0.000 OA
ATOM     13  C   UNL     1       2.775  -7.304  13.926  0.00  0.00    +0.000 C 
BRANCH  13  14
ATOM     14  C   UNL     1       4.238  -7.102  14.286  0.00  0.00    +0.000 C 
ATOM     15  H   UNL     1       4.441  -6.047  14.482  0.00  0.00    +0.000 HD
ATOM     16  H   UNL     1       4.862  -7.410  13.440  0.00  0.00    +0.000 HD
ATOM     17  H   UNL     1       4.509  -7.725  15.143  0.00  0.00    +0.000 HD
ENDBRANCH  13  14
ENDBRANCH   1  13
TORSDOF 2
ENDMDL
MODEL 7
REMARK VINA RESULT:    -4.453     20.604     22.394
REMARK INTER + INTRA:          -4.929
REMARK INTER:                  -4.847
REMARK INTRA:                  -0.081
REMARK UNBOUND:                -0.085
REMARK  Name = 7410
REMARK  2 active torsions:
REMARK  status: ('A' for Active; 'I' for Inactive)
REMARK    1  A    between atoms: C_2  and  C_5
REMARK    2  A    between atoms: C_5  and  C_9
REMARK                            x       y       z     vdW  Elec       q    Type
REMARK                         _______ _______ _______ _____ _____    ______ ____
ROOT
ATOM      1  C   UNL     1       6.153  12.822   2.609  0.00  0.00    +0.000 A 
ATOM      2  C   UNL     1       5.625  11.738   1.908  0.00  0.00    +0.000 A 
ATOM      3  C   UNL     1       6.929  13.772   1.945  0.00  0.00    +0.000 A 
ATOM      4  C   UNL     1       5.873  11.604   0.541  0.00  0.00    +0.000 A 
ATOM      5  C   UNL     1       7.176  13.638   0.578  0.00  0.00    +0.000 A 
ATOM      6  C   UNL     1       6.648  12.554  -0.123  0.00  0.00    +0.000 A 
ATOM      7  H   UNL     1       5.017  10.974   2.381  0.00  0.00    +0.000 HD
ATOM      8  H   UNL     1       7.350  14.624   2.471  0.00  0.00    +0.000 HD
ATOM      9  H   UNL     1       5.462  10.761  -0.006  0.00  0.00    +0.000 HD
ATOM     10  H   UNL     1       7.780  14.378   0.061  0.00  0.00    +0.000 HD
ATOM     11  H   UNL     1       6.841  12.450  -1.187  0.00  0.00    +0.000 HD
ENDROOT
BRANCH   1  13
ATOM     12  O   UNL     1       6.691  13.492   4.825  0.00  0.00    +0.000 OA
ATOM     13  C   UNL     1       5.896  12.962   4.033  0.00  0.00    +0.000 C 
BRANCH  13  14
ATOM     14  C   UNL     1       4.588  12.436   4.601  0.00  0.00    +0.000 C 
ATOM     15  H   UNL     1       4.779  11.656   5.341  0.00  0.00    +0.000 HD
ATOM     16  H   UNL     1       3.998  11.991   3.792  0.00  0.00    +0.000 HD
ATOM     17  H   UNL     1       4.001  13.254   5.028  0.00  0.00    +0.000 HD
ENDBRANCH  13  14
ENDBRANCH   1  13
TORSDOF 2
ENDMDL
MODEL 8
REMARK VINA RESULT:    -4.234     20.487     21.443
REMARK INTER + INTRA:          -4.690
REMARK INTER:                  -4.619
REMARK INTRA:                  -0.071
REMARK UNBOUND:                -0.085
REMARK  Name = 7410
REMARK  2 active torsions:
REMARK  status: ('A' for Active; 'I' for Inactive)
REMARK    1  A    between atoms: C_2  and  C_5
REMARK    2  A    between atoms: C_5  and  C_9
REMARK                            x       y       z     vdW  Elec       q    Type
REMARK                         _______ _______ _______ _____ _____    ______ ____
ROOT
ATOM      1  C   UNL     1      11.766 -10.065  -3.131  0.00  0.00    +0.000 A 
ATOM      2  C   UNL     1      11.115 -11.265  -3.419  0.00  0.00    +0.000 A 
ATOM      3  C   UNL     1      11.401  -9.327  -2.005  0.00  0.00    +0.000 A 
ATOM      4  C   UNL     1      10.099 -11.726  -2.582  0.00  0.00    +0.000 A 
ATOM      5  C   UNL     1      10.385  -9.788  -1.168  0.00  0.00    +0.000 A 
ATOM      6  C   UNL     1       9.734 -10.987  -1.456  0.00  0.00    +0.000 A 
ATOM      7  H   UNL     1      11.364 -11.874  -4.282  0.00  0.00    +0.000 HD
ATOM      8  H   UNL     1      11.894  -8.390  -1.761  0.00  0.00    +0.000 HD
ATOM      9  H   UNL     1       9.592 -12.660  -2.805  0.00  0.00    +0.000 HD
ATOM     10  H   UNL     1      10.100  -9.213  -0.292  0.00  0.00    +0.000 HD
ATOM     11  H   UNL     1       8.943 -11.346  -0.804  0.00  0.00    +0.000 HD
ENDROOT
BRANCH   1  13
ATOM     12  O   UNL     1      14.026  -9.593  -3.692  0.00  0.00    +0.000 OA
ATOM     13  C   UNL     1      12.825  -9.585  -4.003  0.00  0.00    +0.000 C 
BRANCH  13  14
ATOM     14  C   UNL     1      12.460  -9.040  -5.374  0.00  0.00    +0.000 C 
ATOM     15  H   UNL     1      12.446  -7.947  -5.359  0.00  0.00    +0.000 HD
ATOM     16  H   UNL     1      11.455  -9.382  -5.641  0.00  0.00    +0.000 HD
ATOM     17  H   UNL     1      13.152  -9.418  -6.131  0.00  0.00    +0.000 HD
ENDBRANCH  13  14
ENDBRANCH   1  13
TORSDOF 2
ENDMDL
MODEL 9
REMARK VINA RESULT:    -4.196     21.306     22.104
REMARK INTER + INTRA:          -4.649
REMARK INTER:                  -4.564
REMARK INTRA:                  -0.085
REMARK UNBOUND:                -0.085
REMARK  Name = 7410
REMARK  2 active torsions:
REMARK  status: ('A' for Active; 'I' for Inactive)
REMARK    1  A    between atoms: C_2  and  C_5
REMARK    2  A    between atoms: C_5  and  C_9
REMARK                            x       y       z     vdW  Elec       q    Type
REMARK                         _______ _______ _______ _____ _____    ______ ____
ROOT
ATOM      1  C   UNL     1     -19.090  -1.862   8.549  0.00  0.00    +0.000 A 
ATOM      2  C   UNL     1     -19.189  -2.218   9.894  0.00  0.00    +0.000 A 
ATOM      3  C   UNL     1     -20.180  -2.045   7.697  0.00  0.00    +0.000 A 
ATOM      4  C   UNL     1     -20.379  -2.756  10.387  0.00  0.00    +0.000 A 
ATOM      5  C   UNL     1     -21.369  -2.582   8.191  0.00  0.00    +0.000 A 
ATOM      6  C   UNL     1     -21.468  -2.938   9.536  0.00  0.00    +0.000 A 
ATOM      7  H   UNL     1     -18.370  -2.095  10.594  0.00  0.00    +0.000 HD
ATOM      8  H   UNL     1     -20.125  -1.775   6.646  0.00  0.00    +0.000 HD
ATOM      9  H   UNL     1     -20.457  -3.032  11.435  0.00  0.00    +0.000 HD
ATOM     10  H   UNL     1     -22.217  -2.724   7.528  0.00  0.00    +0.000 HD
ATOM     11  H   UNL     1     -22.394  -3.356   9.920  0.00  0.00    +0.000 HD
ENDROOT
BRANCH   1  13
ATOM     12  O   UNL     1     -16.822  -1.174   8.715  0.00  0.00    +0.000 OA
ATOM     13  C   UNL     1     -17.852  -1.302   8.034  0.00  0.00    +0.000 C 
BRANCH  13  14
ATOM     14  C   UNL     1     -17.795  -0.844   6.587  0.00  0.00    +0.000 C 
ATOM     15  H   UNL     1     -18.041   0.218   6.513  0.00  0.00    +0.000 HD
ATOM     16  H   UNL     1     -18.539  -1.399   6.004  0.00  0.00    +0.000 HD
ATOM     17  H   UNL     1     -16.812  -1.055   6.158  0.00  0.00    +0.000 HD
ENDBRANCH  13  14
ENDBRANCH   1  13
TORSDOF 2
ENDMDL
MODEL 10
REMARK VINA RESULT:    -4.107     14.914     16.036
REMARK INTER + INTRA:          -4.552
REMARK INTER:                  -4.469
REMARK INTRA:                  -0.083
REMARK UNBOUND:                -0.085
REMARK  Name = 7410
REMARK  2 active torsions:
REMARK  status: ('A' for Active; 'I' for Inactive)
REMARK    1  A    between atoms: C_2  and  C_5
REMARK    2  A    between atoms: C_5  and  C_9
REMARK                            x       y       z     vdW  Elec       q    Type
REMARK                         _______ _______ _______ _____ _____    ______ ____
ROOT
ATOM      1  C   UNL     1      -6.808 -13.273   4.281  0.00  0.00    +0.000 A 
ATOM      2  C   UNL     1      -8.038 -13.709   4.773  0.00  0.00    +0.000 A 
ATOM      3  C   UNL     1      -5.719 -13.142   5.143  0.00  0.00    +0.000 A 
ATOM      4  C   UNL     1      -8.179 -14.015   6.127  0.00  0.00    +0.000 A 
ATOM      5  C   UNL     1      -5.860 -13.447   6.497  0.00  0.00    +0.000 A 
ATOM      6  C   UNL     1      -7.090 -13.884   6.989  0.00  0.00    +0.000 A 
ATOM      7  H   UNL     1      -8.913 -13.827   4.143  0.00  0.00    +0.000 HD
ATOM      8  H   UNL     1      -4.752 -12.804   4.781  0.00  0.00    +0.000 HD
ATOM      9  H   UNL     1      -9.136 -14.354   6.511  0.00  0.00    +0.000 HD
ATOM     10  H   UNL     1      -5.012 -13.346   7.167  0.00  0.00    +0.000 HD
ATOM     11  H   UNL     1      -7.200 -14.121   8.043  0.00  0.00    +0.000 HD
ENDROOT
BRANCH   1  13
ATOM     12  O   UNL     1      -7.413 -13.395   1.986  0.00  0.00    +0.000 OA
ATOM     13  C   UNL     1      -6.661 -12.955   2.871  0.00  0.00    +0.000 C 
BRANCH  13  14
ATOM     14  C   UNL     1      -5.532 -12.036   2.436  0.00  0.00    +0.000 C 
ATOM     15  H   UNL     1      -5.770 -10.997   2.678  0.00  0.00    +0.000 HD
ATOM     16  H   UNL     1      -5.411 -12.105   1.349  0.00  0.00    +0.000 HD
ATOM     17  H   UNL     1      -4.589 -12.345   2.895  0.00  0.00    +0.000 HD
ENDBRANCH  13  14
ENDBRANCH   1  13
TORSDOF 2
ENDMDL
