MODEL 1
REMARK VINA RESULT:    -4.468      0.000      0.000
REMARK INTER + INTRA:          -4.887
REMARK INTER:                  -4.857
REMARK INTRA:                  -0.030
REMARK UNBOUND:                -0.028
REMARK  Name = 7519
REMARK  2 active torsions:
REMARK  status: ('A' for Active; 'I' for Inactive)
REMARK    1  A    between atoms: O_1  and  C_2
REMARK    2  A    between atoms: O_1  and  C_8
REMARK                            x       y       z     vdW  Elec       q    Type
REMARK                         _______ _______ _______ _____ _____    ______ ____
ROOT
ATOM      1  C   UNL     1       1.634  -5.006  14.863  0.00  0.00    +0.000 A 
ATOM      2  C   UNL     1       1.754  -6.338  14.467  0.00  0.00    +0.000 A 
ATOM      3  C   UNL     1       0.672  -4.643  15.806  0.00  0.00    +0.000 A 
ATOM      4  C   UNL     1       0.911  -7.307  15.012  0.00  0.00    +0.000 A 
ATOM      5  C   UNL     1      -0.171  -5.611  16.352  0.00  0.00    +0.000 A 
ATOM      6  C   UNL     1      -0.051  -6.943  15.955  0.00  0.00    +0.000 A 
ATOM      7  H   UNL     1       2.478  -6.689  13.740  0.00  0.00    +0.000 HD
ATOM      8  H   UNL     1       0.574  -3.607  16.119  0.00  0.00    +0.000 HD
ATOM      9  H   UNL     1       1.003  -8.344  14.704  0.00  0.00    +0.000 HD
ATOM     10  H   UNL     1      -0.920  -5.329  17.086  0.00  0.00    +0.000 HD
ATOM     11  H   UNL     1      -0.707  -7.698  16.379  0.00  0.00    +0.000 HD
ENDROOT
BRANCH   1  12
ATOM     12  O   UNL     1       2.456  -4.061  14.331  0.00  0.00    +0.000 OA
BRANCH  12  13
ATOM     13  C   UNL     1       2.280  -2.719  14.781  0.00  0.00    +0.000 C 
ATOM     14  H   UNL     1       1.617  -2.156  14.114  0.00  0.00    +0.000 HD
ATOM     15  H   UNL     1       3.240  -2.216  14.933  0.00  0.00    +0.000 HD
ATOM     16  H   UNL     1       1.784  -2.767  15.756  0.00  0.00    +0.000 HD
ENDBRANCH  12  13
ENDBRANCH   1  12
TORSDOF 2
ENDMDL
MODEL 2
REMARK VINA RESULT:    -4.414     18.525     19.660
REMARK INTER + INTRA:          -4.829
REMARK INTER:                  -4.802
REMARK INTRA:                  -0.027
REMARK UNBOUND:                -0.028
REMARK  Name = 7519
REMARK  2 active torsions:
REMARK  status: ('A' for Active; 'I' for Inactive)
REMARK    1  A    between atoms: O_1  and  C_2
REMARK    2  A    between atoms: O_1  and  C_8
REMARK                            x       y       z     vdW  Elec       q    Type
REMARK                         _______ _______ _______ _____ _____    ______ ____
ROOT
ATOM      1  C   UNL     1      10.977  -9.403  -1.649  0.00  0.00    +0.000 A 
ATOM      2  C   UNL     1      10.343  -8.252  -1.180  0.00  0.00    +0.000 A 
ATOM      3  C   UNL     1      10.327 -10.635  -1.578  0.00  0.00    +0.000 A 
ATOM      4  C   UNL     1       9.059  -8.334  -0.640  0.00  0.00    +0.000 A 
ATOM      5  C   UNL     1       9.044 -10.718  -1.039  0.00  0.00    +0.000 A 
ATOM      6  C   UNL     1       8.410  -9.567  -0.569  0.00  0.00    +0.000 A 
ATOM      7  H   UNL     1      10.790  -7.264  -1.204  0.00  0.00    +0.000 HD
ATOM      8  H   UNL     1      10.816 -11.535  -1.942  0.00  0.00    +0.000 HD
ATOM      9  H   UNL     1       8.565  -7.439  -0.274  0.00  0.00    +0.000 HD
ATOM     10  H   UNL     1       8.537 -11.677  -0.983  0.00  0.00    +0.000 HD
ATOM     11  H   UNL     1       7.410  -9.630  -0.149  0.00  0.00    +0.000 HD
ENDROOT
BRANCH   1  12
ATOM     12  O   UNL     1      12.230  -9.323  -2.175  0.00  0.00    +0.000 OA
BRANCH  12  13
ATOM     13  C   UNL     1      12.547 -10.223  -3.236  0.00  0.00    +0.000 C 
ATOM     14  H   UNL     1      11.907 -11.112  -3.214  0.00  0.00    +0.000 HD
ATOM     15  H   UNL     1      13.612 -10.478  -3.242  0.00  0.00    +0.000 HD
ATOM     16  H   UNL     1      12.336  -9.702  -4.176  0.00  0.00    +0.000 HD
ENDBRANCH  12  13
ENDBRANCH   1  12
TORSDOF 2
ENDMDL
MODEL 3
REMARK VINA RESULT:    -4.250      1.274      2.754
REMARK INTER + INTRA:          -4.651
REMARK INTER:                  -4.620
REMARK INTRA:                  -0.030
REMARK UNBOUND:                -0.028
REMARK  Name = 7519
REMARK  2 active torsions:
REMARK  status: ('A' for Active; 'I' for Inactive)
REMARK    1  A    between atoms: O_1  and  C_2
REMARK    2  A    between atoms: O_1  and  C_8
REMARK                            x       y       z     vdW  Elec       q    Type
REMARK                         _______ _______ _______ _____ _____    ______ ____
ROOT
ATOM      1  C   UNL     1       1.727  -6.323  14.554  0.00  0.00    +0.000 A 
ATOM      2  C   UNL     1       1.557  -5.015  15.008  0.00  0.00    +0.000 A 
ATOM      3  C   UNL     1       0.892  -7.337  15.023  0.00  0.00    +0.000 A 
ATOM      4  C   UNL     1       0.552  -4.722  15.930  0.00  0.00    +0.000 A 
ATOM      5  C   UNL     1      -0.113  -7.045  15.945  0.00  0.00    +0.000 A 
ATOM      6  C   UNL     1      -0.283  -5.737  16.399  0.00  0.00    +0.000 A 
ATOM      7  H   UNL     1       2.170  -4.180  14.686  0.00  0.00    +0.000 HD
ATOM      8  H   UNL     1       1.020  -8.359  14.672  0.00  0.00    +0.000 HD
ATOM      9  H   UNL     1       0.419  -3.704  16.285  0.00  0.00    +0.000 HD
ATOM     10  H   UNL     1      -0.763  -7.834  16.309  0.00  0.00    +0.000 HD
ATOM     11  H   UNL     1      -1.064  -5.508  17.116  0.00  0.00    +0.000 HD
ENDROOT
BRANCH   1  12
ATOM     12  O   UNL     1       2.708  -6.609  13.655  0.00  0.00    +0.000 OA
BRANCH  12  13
ATOM     13  C   UNL     1       2.804  -7.961  13.207  0.00  0.00    +0.000 C 
ATOM     14  H   UNL     1       1.930  -8.548  13.509  0.00  0.00    +0.000 HD
ATOM     15  H   UNL     1       3.744  -8.423  13.524  0.00  0.00    +0.000 HD
ATOM     16  H   UNL     1       2.811  -7.939  12.112  0.00  0.00    +0.000 HD
ENDBRANCH  12  13
ENDBRANCH   1  12
TORSDOF 2
ENDMDL
MODEL 4
REMARK VINA RESULT:    -4.085     14.811     15.497
REMARK INTER + INTRA:          -4.471
REMARK INTER:                  -4.444
REMARK INTRA:                  -0.027
REMARK UNBOUND:                -0.028
REMARK  Name = 7519
REMARK  2 active torsions:
REMARK  status: ('A' for Active; 'I' for Inactive)
REMARK    1  A    between atoms: O_1  and  C_2
REMARK    2  A    between atoms: O_1  and  C_8
REMARK                            x       y       z     vdW  Elec       q    Type
REMARK                         _______ _______ _______ _____ _____    ______ ____
ROOT
ATOM      1  C   UNL     1       4.562 -13.230   1.967  0.00  0.00    +0.000 A 
ATOM      2  C   UNL     1       3.791 -14.093   2.745  0.00  0.00    +0.000 A 
ATOM      3  C   UNL     1       4.032 -12.011   1.545  0.00  0.00    +0.000 A 
ATOM      4  C   UNL     1       2.490 -13.737   3.102  0.00  0.00    +0.000 A 
ATOM      5  C   UNL     1       2.732 -11.653   1.901  0.00  0.00    +0.000 A 
ATOM      6  C   UNL     1       1.961 -12.516   2.680  0.00  0.00    +0.000 A 
ATOM      7  H   UNL     1       4.140 -15.055   3.107  0.00  0.00    +0.000 HD
ATOM      8  H   UNL     1       4.629 -11.334   0.937  0.00  0.00    +0.000 HD
ATOM      9  H   UNL     1       1.889 -14.407   3.708  0.00  0.00    +0.000 HD
ATOM     10  H   UNL     1       2.320 -10.704   1.573  0.00  0.00    +0.000 HD
ATOM     11  H   UNL     1       0.949 -12.240   2.958  0.00  0.00    +0.000 HD
ENDROOT
BRANCH   1  12
ATOM     12  O   UNL     1       5.831 -13.578   1.618  0.00  0.00    +0.000 OA
BRANCH  12  13
ATOM     13  C   UNL     1       6.775 -12.520   1.461  0.00  0.00    +0.000 C 
ATOM     14  H   UNL     1       7.778 -12.825   1.778  0.00  0.00    +0.000 HD
ATOM     15  H   UNL     1       6.441 -11.606   1.963  0.00  0.00    +0.000 HD
ATOM     16  H   UNL     1       6.833 -12.295   0.391  0.00  0.00    +0.000 HD
ENDBRANCH  12  13
ENDBRANCH   1  12
TORSDOF 2
ENDMDL
MODEL 5
REMARK VINA RESULT:    -4.071      1.941      3.372
REMARK INTER + INTRA:          -4.456
REMARK INTER:                  -4.438
REMARK INTRA:                  -0.017
REMARK UNBOUND:                -0.028
REMARK  Name = 7519
REMARK  2 active torsions:
REMARK  status: ('A' for Active; 'I' for Inactive)
REMARK    1  A    between atoms: O_1  and  C_2
REMARK    2  A    between atoms: O_1  and  C_8
REMARK                            x       y       z     vdW  Elec       q    Type
REMARK                         _______ _______ _______ _____ _____    ______ ____
ROOT
ATOM      1  C   UNL     1       0.246  -6.434  15.715  0.00  0.00    +0.000 A 
ATOM      2  C   UNL     1       1.144  -6.913  14.761  0.00  0.00    +0.000 A 
ATOM      3  C   UNL     1       0.286  -5.093  16.098  0.00  0.00    +0.000 A 
ATOM      4  C   UNL     1       2.083  -6.052  14.192  0.00  0.00    +0.000 A 
ATOM      5  C   UNL     1       1.224  -4.231  15.530  0.00  0.00    +0.000 A 
ATOM      6  C   UNL     1       2.122  -4.711  14.577  0.00  0.00    +0.000 A 
ATOM      7  H   UNL     1       1.169  -7.942  14.418  0.00  0.00    +0.000 HD
ATOM      8  H   UNL     1      -0.412  -4.714  16.841  0.00  0.00    +0.000 HD
ATOM      9  H   UNL     1       2.783  -6.423  13.450  0.00  0.00    +0.000 HD
ATOM     10  H   UNL     1       1.255  -3.188  15.828  0.00  0.00    +0.000 HD
ATOM     11  H   UNL     1       2.853  -4.041  14.133  0.00  0.00    +0.000 HD
ENDROOT
BRANCH   1  12
ATOM     12  O   UNL     1      -0.670  -7.274  16.270  0.00  0.00    +0.000 OA
BRANCH  12  13
ATOM     13  C   UNL     1      -0.261  -8.010  17.421  0.00  0.00    +0.000 C 
ATOM     14  H   UNL     1       0.522  -7.484  17.979  0.00  0.00    +0.000 HD
ATOM     15  H   UNL     1       0.031  -9.033  17.162  0.00  0.00    +0.000 HD
ATOM     16  H   UNL     1      -1.130  -8.083  18.084  0.00  0.00    +0.000 HD
ENDBRANCH  12  13
ENDBRANCH   1  12
TORSDOF 2
ENDMDL
MODEL 6
REMARK VINA RESULT:    -3.951     22.728     24.072
REMARK INTER + INTRA:          -4.325
REMARK INTER:                  -4.308
REMARK INTRA:                  -0.018
REMARK UNBOUND:                -0.028
REMARK  Name = 7519
REMARK  2 active torsions:
REMARK  status: ('A' for Active; 'I' for Inactive)
REMARK    1  A    between atoms: O_1  and  C_2
REMARK    2  A    between atoms: O_1  and  C_8
REMARK                            x       y       z     vdW  Elec       q    Type
REMARK                         _______ _______ _______ _____ _____    ______ ____
ROOT
ATOM      1  C   UNL     1       6.863  12.776  -0.260  0.00  0.00    +0.000 A 
ATOM      2  C   UNL     1       6.092  11.720   0.226  0.00  0.00    +0.000 A 
ATOM      3  C   UNL     1       7.262  13.800   0.598  0.00  0.00    +0.000 A 
ATOM      4  C   UNL     1       5.721  11.688   1.570  0.00  0.00    +0.000 A 
ATOM      5  C   UNL     1       6.891  13.770   1.942  0.00  0.00    +0.000 A 
ATOM      6  C   UNL     1       6.121  12.714   2.428  0.00  0.00    +0.000 A 
ATOM      7  H   UNL     1       5.748  10.892  -0.385  0.00  0.00    +0.000 HD
ATOM      8  H   UNL     1       7.863  14.626   0.225  0.00  0.00    +0.000 HD
ATOM      9  H   UNL     1       5.121  10.867   1.950  0.00  0.00    +0.000 HD
ATOM     10  H   UNL     1       7.202  14.567   2.610  0.00  0.00    +0.000 HD
ATOM     11  H   UNL     1       5.831  12.688   3.475  0.00  0.00    +0.000 HD
ENDROOT
BRANCH   1  12
ATOM     12  O   UNL     1       7.225  12.806  -1.572  0.00  0.00    +0.000 OA
BRANCH  12  13
ATOM     13  C   UNL     1       8.387  12.066  -1.942  0.00  0.00    +0.000 C 
ATOM     14  H   UNL     1       8.182  10.990  -1.984  0.00  0.00    +0.000 HD
ATOM     15  H   UNL     1       9.238  12.302  -1.295  0.00  0.00    +0.000 HD
ATOM     16  H   UNL     1       8.659  12.378  -2.956  0.00  0.00    +0.000 HD
ENDBRANCH  12  13
ENDBRANCH   1  12
TORSDOF 2
ENDMDL
MODEL 7
REMARK VINA RESULT:    -3.811     24.059     24.639
REMARK INTER + INTRA:          -4.173
REMARK INTER:                  -4.143
REMARK INTRA:                  -0.030
REMARK UNBOUND:                -0.028
REMARK  Name = 7519
REMARK  2 active torsions:
REMARK  status: ('A' for Active; 'I' for Inactive)
REMARK    1  A    between atoms: O_1  and  C_2
REMARK    2  A    between atoms: O_1  and  C_8
REMARK                            x       y       z     vdW  Elec       q    Type
REMARK                         _______ _______ _______ _____ _____    ______ ____
ROOT
ATOM      1  C   UNL     1      15.207  10.383   2.302  0.00  0.00    +0.000 A 
ATOM      2  C   UNL     1      15.589   9.958   3.574  0.00  0.00    +0.000 A 
ATOM      3  C   UNL     1      15.739   9.764   1.171  0.00  0.00    +0.000 A 
ATOM      4  C   UNL     1      16.502   8.913   3.716  0.00  0.00    +0.000 A 
ATOM      5  C   UNL     1      16.653   8.719   1.312  0.00  0.00    +0.000 A 
ATOM      6  C   UNL     1      17.034   8.294   2.584  0.00  0.00    +0.000 A 
ATOM      7  H   UNL     1      15.215  10.394   4.495  0.00  0.00    +0.000 HD
ATOM      8  H   UNL     1      15.446  10.091   0.176  0.00  0.00    +0.000 HD
ATOM      9  H   UNL     1      16.800   8.581   4.706  0.00  0.00    +0.000 HD
ATOM     10  H   UNL     1      17.067   8.237   0.432  0.00  0.00    +0.000 HD
ATOM     11  H   UNL     1      17.745   7.481   2.695  0.00  0.00    +0.000 HD
ENDROOT
BRANCH   1  12
ATOM     12  O   UNL     1      14.316  11.403   2.164  0.00  0.00    +0.000 OA
BRANCH  12  13
ATOM     13  C   UNL     1      13.696  11.889   3.353  0.00  0.00    +0.000 C 
ATOM     14  H   UNL     1      14.066  12.885   3.621  0.00  0.00    +0.000 HD
ATOM     15  H   UNL     1      13.792  11.175   4.177  0.00  0.00    +0.000 HD
ATOM     16  H   UNL     1      12.627  11.993   3.141  0.00  0.00    +0.000 HD
ENDBRANCH  12  13
ENDBRANCH   1  12
TORSDOF 2
ENDMDL
MODEL 8
REMARK VINA RESULT:    -3.735     22.558     24.051
REMARK INTER + INTRA:          -4.090
REMARK INTER:                  -4.062
REMARK INTRA:                  -0.029
REMARK UNBOUND:                -0.028
REMARK  Name = 7519
REMARK  2 active torsions:
REMARK  status: ('A' for Active; 'I' for Inactive)
REMARK    1  A    between atoms: O_1  and  C_2
REMARK    2  A    between atoms: O_1  and  C_8
REMARK                            x       y       z     vdW  Elec       q    Type
REMARK                         _______ _______ _______ _____ _____    ______ ____
ROOT
ATOM      1  C   UNL     1       7.161  13.679   0.860  0.00  0.00    +0.000 A 
ATOM      2  C   UNL     1       6.800  13.674   2.207  0.00  0.00    +0.000 A 
ATOM      3  C   UNL     1       6.709  12.667   0.013  0.00  0.00    +0.000 A 
ATOM      4  C   UNL     1       5.986  12.657   2.707  0.00  0.00    +0.000 A 
ATOM      5  C   UNL     1       5.896  11.650   0.512  0.00  0.00    +0.000 A 
ATOM      6  C   UNL     1       5.535  11.645   1.859  0.00  0.00    +0.000 A 
ATOM      7  H   UNL     1       7.115  14.429   2.920  0.00  0.00    +0.000 HD
ATOM      8  H   UNL     1       6.988  12.666  -1.038  0.00  0.00    +0.000 HD
ATOM      9  H   UNL     1       5.704  12.652   3.756  0.00  0.00    +0.000 HD
ATOM     10  H   UNL     1       5.544  10.862  -0.147  0.00  0.00    +0.000 HD
ATOM     11  H   UNL     1       4.902  10.853   2.249  0.00  0.00    +0.000 HD
ENDROOT
BRANCH   1  12
ATOM     12  O   UNL     1       7.955  14.671   0.372  0.00  0.00    +0.000 OA
BRANCH  12  13
ATOM     13  C   UNL     1       8.677  14.395  -0.827  0.00  0.00    +0.000 C 
ATOM     14  H   UNL     1       9.745  14.611  -0.712  0.00  0.00    +0.000 HD
ATOM     15  H   UNL     1       8.240  14.911  -1.688  0.00  0.00    +0.000 HD
ATOM     16  H   UNL     1       8.588  13.321  -1.018  0.00  0.00    +0.000 HD
ENDBRANCH  12  13
ENDBRANCH   1  12
TORSDOF 2
ENDMDL
MODEL 9
REMARK VINA RESULT:    -3.604     25.650     26.990
REMARK INTER + INTRA:          -3.948
REMARK INTER:                  -3.918
REMARK INTRA:                  -0.030
REMARK UNBOUND:                -0.028
REMARK  Name = 7519
REMARK  2 active torsions:
REMARK  status: ('A' for Active; 'I' for Inactive)
REMARK    1  A    between atoms: O_1  and  C_2
REMARK    2  A    between atoms: O_1  and  C_8
REMARK                            x       y       z     vdW  Elec       q    Type
REMARK                         _______ _______ _______ _____ _____    ______ ____
ROOT
ATOM      1  C   UNL     1       8.028  12.940  -4.112  0.00  0.00    +0.000 A 
ATOM      2  C   UNL     1       7.042  13.603  -3.381  0.00  0.00    +0.000 A 
ATOM      3  C   UNL     1       8.859  12.015  -3.482  0.00  0.00    +0.000 A 
ATOM      4  C   UNL     1       6.888  13.341  -2.020  0.00  0.00    +0.000 A 
ATOM      5  C   UNL     1       8.706  11.751  -2.121  0.00  0.00    +0.000 A 
ATOM      6  C   UNL     1       7.720  12.414  -1.390  0.00  0.00    +0.000 A 
ATOM      7  H   UNL     1       6.363  14.334  -3.807  0.00  0.00    +0.000 HD
ATOM      8  H   UNL     1       9.629  11.494  -4.047  0.00  0.00    +0.000 HD
ATOM      9  H   UNL     1       6.121  13.856  -1.449  0.00  0.00    +0.000 HD
ATOM     10  H   UNL     1       9.353  11.031  -1.630  0.00  0.00    +0.000 HD
ATOM     11  H   UNL     1       7.600  12.210  -0.330  0.00  0.00    +0.000 HD
ENDROOT
BRANCH   1  12
ATOM     12  O   UNL     1       8.178  13.197  -5.441  0.00  0.00    +0.000 OA
BRANCH  12  13
ATOM     13  C   UNL     1       9.094  12.374  -6.161  0.00  0.00    +0.000 C 
ATOM     14  H   UNL     1       9.298  12.778  -7.159  0.00  0.00    +0.000 HD
ATOM     15  H   UNL     1       8.759  11.333  -6.195  0.00  0.00    +0.000 HD
ATOM     16  H   UNL     1      10.042  12.388  -5.612  0.00  0.00    +0.000 HD
ENDBRANCH  12  13
ENDBRANCH   1  12
TORSDOF 2
ENDMDL
MODEL 10
REMARK VINA RESULT:    -3.587     27.034     29.292
REMARK INTER + INTRA:          -3.929
REMARK INTER:                  -3.901
REMARK INTRA:                  -0.028
REMARK UNBOUND:                -0.028
REMARK  Name = 7519
REMARK  2 active torsions:
REMARK  status: ('A' for Active; 'I' for Inactive)
REMARK    1  A    between atoms: O_1  and  C_2
REMARK    2  A    between atoms: O_1  and  C_8
REMARK                            x       y       z     vdW  Elec       q    Type
REMARK                         _______ _______ _______ _____ _____    ______ ____
ROOT
ATOM      1  C   UNL     1      10.126  12.770  -5.113  0.00  0.00    +0.000 A 
ATOM      2  C   UNL     1       9.197  12.256  -6.018  0.00  0.00    +0.000 A 
ATOM      3  C   UNL     1      11.094  13.676  -5.547  0.00  0.00    +0.000 A 
ATOM      4  C   UNL     1       9.236  12.647  -7.356  0.00  0.00    +0.000 A 
ATOM      5  C   UNL     1      11.134  14.068  -6.885  0.00  0.00    +0.000 A 
ATOM      6  C   UNL     1      10.205  13.553  -7.790  0.00  0.00    +0.000 A 
ATOM      7  H   UNL     1       8.419  11.549  -5.748  0.00  0.00    +0.000 HD
ATOM      8  H   UNL     1      11.821  14.080  -4.846  0.00  0.00    +0.000 HD
ATOM      9  H   UNL     1       8.514  12.248  -8.061  0.00  0.00    +0.000 HD
ATOM     10  H   UNL     1      11.888  14.772  -7.223  0.00  0.00    +0.000 HD
ATOM     11  H   UNL     1      10.235  13.858  -8.831  0.00  0.00    +0.000 HD
ENDROOT
BRANCH   1  12
ATOM     12  O   UNL     1      10.088  12.388  -3.807  0.00  0.00    +0.000 OA
BRANCH  12  13
ATOM     13  C   UNL     1       8.814  12.035  -3.271  0.00  0.00    +0.000 C 
ATOM     14  H   UNL     1       8.050  11.975  -4.054  0.00  0.00    +0.000 HD
ATOM     15  H   UNL     1       8.521  12.705  -2.456  0.00  0.00    +0.000 HD
ATOM     16  H   UNL     1       8.910  11.032  -2.843  0.00  0.00    +0.000 HD
ENDBRANCH  12  13
ENDBRANCH   1  12
TORSDOF 2
ENDMDL
