MODEL 1
REMARK VINA RESULT:    -4.798      0.000      0.000
REMARK INTER + INTRA:          -5.091
REMARK INTER:                  -5.079
REMARK INTRA:                  -0.013
REMARK UNBOUND:                -0.013
REMARK  Name = 240
REMARK  1 active torsions:
REMARK  status: ('A' for Active; 'I' for Inactive)
REMARK    1  A    between atoms: C_2  and  C_8
REMARK                            x       y       z     vdW  Elec       q    Type
REMARK                         _______ _______ _______ _____ _____    ______ ____
ROOT
ATOM      1  C   UNL     1      10.899  -9.931  -1.972  0.00  0.00    +0.000 A 
ATOM      2  C   UNL     1      10.667  -8.635  -1.511  0.00  0.00    +0.000 A 
ATOM      3  C   UNL     1       9.998 -10.951  -1.667  0.00  0.00    +0.000 A 
ATOM      4  C   UNL     1       9.535  -8.359  -0.745  0.00  0.00    +0.000 A 
ATOM      5  C   UNL     1       8.866 -10.675  -0.901  0.00  0.00    +0.000 A 
ATOM      6  C   UNL     1       8.634  -9.379  -0.440  0.00  0.00    +0.000 A 
ATOM      7  H   UNL     1      11.360  -7.829  -1.741  0.00  0.00    +0.000 HD
ATOM      8  H   UNL     1      10.159 -11.968  -2.016  0.00  0.00    +0.000 HD
ATOM      9  H   UNL     1       9.354  -7.350  -0.386  0.00  0.00    +0.000 HD
ATOM     10  H   UNL     1       8.164 -11.470  -0.663  0.00  0.00    +0.000 HD
ATOM     11  H   UNL     1       7.753  -9.165   0.157  0.00  0.00    +0.000 HD
ENDROOT
BRANCH   1  13
ATOM     12  O   UNL     1      13.135  -9.587  -2.666  0.00  0.00    +0.000 OA
ATOM     13  C   UNL     1      12.080 -10.218  -2.772  0.00  0.00    +0.000 C 
ATOM     14  H   UNL     1      11.998 -11.044  -3.497  0.00  0.00    +0.000 HD
ENDBRANCH   1  13
TORSDOF 1
ENDMDL
MODEL 2
REMARK VINA RESULT:    -4.662     18.564     19.663
REMARK INTER + INTRA:          -4.948
REMARK INTER:                  -4.934
REMARK INTRA:                  -0.014
REMARK UNBOUND:                -0.013
REMARK  Name = 240
REMARK  1 active torsions:
REMARK  status: ('A' for Active; 'I' for Inactive)
REMARK    1  A    between atoms: C_2  and  C_8
REMARK                            x       y       z     vdW  Elec       q    Type
REMARK                         _______ _______ _______ _____ _____    ______ ____
ROOT
ATOM      1  C   UNL     1       1.551  -4.314  15.124  0.00  0.00    +0.000 A 
ATOM      2  C   UNL     1       2.174  -5.247  14.295  0.00  0.00    +0.000 A 
ATOM      3  C   UNL     1       0.519  -4.713  15.974  0.00  0.00    +0.000 A 
ATOM      4  C   UNL     1       1.764  -6.580  14.316  0.00  0.00    +0.000 A 
ATOM      5  C   UNL     1       0.111  -6.047  15.994  0.00  0.00    +0.000 A 
ATOM      6  C   UNL     1       0.733  -6.980  15.165  0.00  0.00    +0.000 A 
ATOM      7  H   UNL     1       2.979  -4.950  13.628  0.00  0.00    +0.000 HD
ATOM      8  H   UNL     1       0.020  -4.003  16.627  0.00  0.00    +0.000 HD
ATOM      9  H   UNL     1       2.249  -7.307  13.670  0.00  0.00    +0.000 HD
ATOM     10  H   UNL     1      -0.693  -6.358  16.656  0.00  0.00    +0.000 HD
ATOM     11  H   UNL     1       0.415  -8.018  15.181  0.00  0.00    +0.000 HD
ENDROOT
BRANCH   1  13
ATOM     12  O   UNL     1       3.004  -2.541  14.533  0.00  0.00    +0.000 OA
ATOM     13  C   UNL     1       1.978  -2.923  15.102  0.00  0.00    +0.000 C 
ATOM     14  H   UNL     1       1.333  -2.199  15.628  0.00  0.00    +0.000 HD
ENDBRANCH   1  13
TORSDOF 1
ENDMDL
MODEL 3
REMARK VINA RESULT:    -4.466     17.854     19.248
REMARK INTER + INTRA:          -4.741
REMARK INTER:                  -4.728
REMARK INTRA:                  -0.012
REMARK UNBOUND:                -0.013
REMARK  Name = 240
REMARK  1 active torsions:
REMARK  status: ('A' for Active; 'I' for Inactive)
REMARK    1  A    between atoms: C_2  and  C_8
REMARK                            x       y       z     vdW  Elec       q    Type
REMARK                         _______ _______ _______ _____ _____    ______ ____
ROOT
ATOM      1  C   UNL     1       1.829  -6.488  14.565  0.00  0.00    +0.000 A 
ATOM      2  C   UNL     1       0.845  -7.249  15.195  0.00  0.00    +0.000 A 
ATOM      3  C   UNL     1       1.897  -5.112  14.789  0.00  0.00    +0.000 A 
ATOM      4  C   UNL     1      -0.072  -6.635  16.048  0.00  0.00    +0.000 A 
ATOM      5  C   UNL     1       0.980  -4.499  15.642  0.00  0.00    +0.000 A 
ATOM      6  C   UNL     1      -0.005  -5.261  16.272  0.00  0.00    +0.000 A 
ATOM      7  H   UNL     1       0.779  -8.322  15.030  0.00  0.00    +0.000 HD
ATOM      8  H   UNL     1       2.656  -4.500  14.309  0.00  0.00    +0.000 HD
ATOM      9  H   UNL     1      -0.839  -7.228  16.538  0.00  0.00    +0.000 HD
ATOM     10  H   UNL     1       1.033  -3.428  15.816  0.00  0.00    +0.000 HD
ATOM     11  H   UNL     1      -0.718  -4.783  16.936  0.00  0.00    +0.000 HD
ENDROOT
BRANCH   1  13
ATOM     12  O   UNL     1       2.503  -8.099  12.968  0.00  0.00    +0.000 OA
ATOM     13  C   UNL     1       2.786  -7.128  13.675  0.00  0.00    +0.000 C 
ATOM     14  H   UNL     1       3.803  -6.702  13.652  0.00  0.00    +0.000 HD
ENDBRANCH   1  13
TORSDOF 1
ENDMDL
MODEL 4
REMARK VINA RESULT:    -4.326     22.209     23.051
REMARK INTER + INTRA:          -4.592
REMARK INTER:                  -4.583
REMARK INTRA:                  -0.009
REMARK UNBOUND:                -0.013
REMARK  Name = 240
REMARK  1 active torsions:
REMARK  status: ('A' for Active; 'I' for Inactive)
REMARK    1  A    between atoms: C_2  and  C_8
REMARK                            x       y       z     vdW  Elec       q    Type
REMARK                         _______ _______ _______ _____ _____    ______ ____
ROOT
ATOM      1  C   UNL     1       6.644  12.749   0.215  0.00  0.00    +0.000 A 
ATOM      2  C   UNL     1       5.876  11.638   0.564  0.00  0.00    +0.000 A 
ATOM      3  C   UNL     1       7.006  13.680   1.189  0.00  0.00    +0.000 A 
ATOM      4  C   UNL     1       5.469  11.459   1.886  0.00  0.00    +0.000 A 
ATOM      5  C   UNL     1       6.599  13.500   2.511  0.00  0.00    +0.000 A 
ATOM      6  C   UNL     1       5.830  12.389   2.859  0.00  0.00    +0.000 A 
ATOM      7  H   UNL     1       5.586  10.903  -0.184  0.00  0.00    +0.000 HD
ATOM      8  H   UNL     1       7.604  14.553   0.940  0.00  0.00    +0.000 HD
ATOM      9  H   UNL     1       4.871  10.593   2.158  0.00  0.00    +0.000 HD
ATOM     10  H   UNL     1       6.880  14.226   3.269  0.00  0.00    +0.000 HD
ATOM     11  H   UNL     1       5.514  12.250   3.888  0.00  0.00    +0.000 HD
ENDROOT
BRANCH   1  13
ATOM     12  O   UNL     1       6.357  13.466  -2.022  0.00  0.00    +0.000 OA
ATOM     13  C   UNL     1       7.068  12.936  -1.164  0.00  0.00    +0.000 C 
ATOM     14  H   UNL     1       8.079  12.578  -1.424  0.00  0.00    +0.000 HD
ENDBRANCH   1  13
TORSDOF 1
ENDMDL
MODEL 5
REMARK VINA RESULT:    -4.312     19.942     20.910
REMARK INTER + INTRA:          -4.578
REMARK INTER:                  -4.567
REMARK INTRA:                  -0.011
REMARK UNBOUND:                -0.013
REMARK  Name = 240
REMARK  1 active torsions:
REMARK  status: ('A' for Active; 'I' for Inactive)
REMARK    1  A    between atoms: C_2  and  C_8
REMARK                            x       y       z     vdW  Elec       q    Type
REMARK                         _______ _______ _______ _____ _____    ______ ____
ROOT
ATOM      1  C   UNL     1       1.692  -5.222  16.313  0.00  0.00    +0.000 A 
ATOM      2  C   UNL     1       2.109  -6.237  17.174  0.00  0.00    +0.000 A 
ATOM      3  C   UNL     1       0.344  -5.105  15.973  0.00  0.00    +0.000 A 
ATOM      4  C   UNL     1       1.179  -7.136  17.695  0.00  0.00    +0.000 A 
ATOM      5  C   UNL     1      -0.586  -6.004  16.495  0.00  0.00    +0.000 A 
ATOM      6  C   UNL     1      -0.169  -7.019  17.355  0.00  0.00    +0.000 A 
ATOM      7  H   UNL     1       3.157  -6.341  17.448  0.00  0.00    +0.000 HD
ATOM      8  H   UNL     1      -0.003  -4.322  15.305  0.00  0.00    +0.000 HD
ATOM      9  H   UNL     1       1.504  -7.927  18.365  0.00  0.00    +0.000 HD
ATOM     10  H   UNL     1      -1.636  -5.913  16.230  0.00  0.00    +0.000 HD
ATOM     11  H   UNL     1      -0.893  -7.719  17.761  0.00  0.00    +0.000 HD
ENDROOT
BRANCH   1  13
ATOM     12  O   UNL     1       2.527  -3.059  15.834  0.00  0.00    +0.000 OA
ATOM     13  C   UNL     1       2.663  -4.284  15.770  0.00  0.00    +0.000 C 
ATOM     14  H   UNL     1       3.553  -4.719  15.284  0.00  0.00    +0.000 HD
ENDBRANCH   1  13
TORSDOF 1
ENDMDL
MODEL 6
REMARK VINA RESULT:    -4.283     22.307     23.273
REMARK INTER + INTRA:          -4.546
REMARK INTER:                  -4.535
REMARK INTRA:                  -0.011
REMARK UNBOUND:                -0.013
REMARK  Name = 240
REMARK  1 active torsions:
REMARK  status: ('A' for Active; 'I' for Inactive)
REMARK    1  A    between atoms: C_2  and  C_8
REMARK                            x       y       z     vdW  Elec       q    Type
REMARK                         _______ _______ _______ _____ _____    ______ ____
ROOT
ATOM      1  C   UNL     1       5.966  12.592   2.825  0.00  0.00    +0.000 A 
ATOM      2  C   UNL     1       6.757  13.638   2.349  0.00  0.00    +0.000 A 
ATOM      3  C   UNL     1       5.519  11.601   1.950  0.00  0.00    +0.000 A 
ATOM      4  C   UNL     1       7.102  13.692   0.998  0.00  0.00    +0.000 A 
ATOM      5  C   UNL     1       5.865  11.656   0.600  0.00  0.00    +0.000 A 
ATOM      6  C   UNL     1       6.656  12.701   0.124  0.00  0.00    +0.000 A 
ATOM      7  H   UNL     1       7.113  14.417   3.018  0.00  0.00    +0.000 HD
ATOM      8  H   UNL     1       4.902  10.778   2.299  0.00  0.00    +0.000 HD
ATOM      9  H   UNL     1       7.719  14.506   0.627  0.00  0.00    +0.000 HD
ATOM     10  H   UNL     1       5.517  10.884  -0.081  0.00  0.00    +0.000 HD
ATOM     11  H   UNL     1       6.925  12.743  -0.927  0.00  0.00    +0.000 HD
ENDROOT
BRANCH   1  13
ATOM     12  O   UNL     1       4.474  12.244   4.629  0.00  0.00    +0.000 OA
ATOM     13  C   UNL     1       5.606  12.536   4.233  0.00  0.00    +0.000 C 
ATOM     14  H   UNL     1       6.404  12.769   4.958  0.00  0.00    +0.000 HD
ENDBRANCH   1  13
TORSDOF 1
ENDMDL
MODEL 7
REMARK VINA RESULT:    -4.251      2.800      4.060
REMARK INTER + INTRA:          -4.513
REMARK INTER:                  -4.499
REMARK INTRA:                  -0.013
REMARK UNBOUND:                -0.013
REMARK  Name = 240
REMARK  1 active torsions:
REMARK  status: ('A' for Active; 'I' for Inactive)
REMARK    1  A    between atoms: C_2  and  C_8
REMARK                            x       y       z     vdW  Elec       q    Type
REMARK                         _______ _______ _______ _____ _____    ______ ____
ROOT
ATOM      1  C   UNL     1       8.455 -11.064  -0.817  0.00  0.00    +0.000 A 
ATOM      2  C   UNL     1       7.277 -11.510  -0.219  0.00  0.00    +0.000 A 
ATOM      3  C   UNL     1       9.169 -11.908  -1.668  0.00  0.00    +0.000 A 
ATOM      4  C   UNL     1       6.812 -12.801  -0.471  0.00  0.00    +0.000 A 
ATOM      5  C   UNL     1       8.704 -13.198  -1.920  0.00  0.00    +0.000 A 
ATOM      6  C   UNL     1       7.525 -13.645  -1.322  0.00  0.00    +0.000 A 
ATOM      7  H   UNL     1       6.710 -10.863   0.447  0.00  0.00    +0.000 HD
ATOM      8  H   UNL     1      10.089 -11.581  -2.144  0.00  0.00    +0.000 HD
ATOM      9  H   UNL     1       5.894 -13.148  -0.005  0.00  0.00    +0.000 HD
ATOM     10  H   UNL     1       9.259 -13.856  -2.583  0.00  0.00    +0.000 HD
ATOM     11  H   UNL     1       7.163 -14.649  -1.518  0.00  0.00    +0.000 HD
ENDROOT
BRANCH   1  13
ATOM     12  O   UNL     1       8.618  -9.069   0.446  0.00  0.00    +0.000 OA
ATOM     13  C   UNL     1       8.940  -9.717  -0.553  0.00  0.00    +0.000 C 
ATOM     14  H   UNL     1       9.627  -9.284  -1.299  0.00  0.00    +0.000 HD
ENDBRANCH   1  13
TORSDOF 1
ENDMDL
MODEL 8
REMARK VINA RESULT:    -4.217     20.105     20.965
REMARK INTER + INTRA:          -4.477
REMARK INTER:                  -4.463
REMARK INTRA:                  -0.013
REMARK UNBOUND:                -0.013
REMARK  Name = 240
REMARK  1 active torsions:
REMARK  status: ('A' for Active; 'I' for Inactive)
REMARK    1  A    between atoms: C_2  and  C_8
REMARK                            x       y       z     vdW  Elec       q    Type
REMARK                         _______ _______ _______ _____ _____    ______ ____
ROOT
ATOM      1  C   UNL     1      15.181  10.382   2.513  0.00  0.00    +0.000 A 
ATOM      2  C   UNL     1      15.655   9.832   1.321  0.00  0.00    +0.000 A 
ATOM      3  C   UNL     1      15.630   9.886   3.737  0.00  0.00    +0.000 A 
ATOM      4  C   UNL     1      16.577   8.786   1.355  0.00  0.00    +0.000 A 
ATOM      5  C   UNL     1      16.552   8.840   3.769  0.00  0.00    +0.000 A 
ATOM      6  C   UNL     1      17.026   8.290   2.578  0.00  0.00    +0.000 A 
ATOM      7  H   UNL     1      15.315  10.208   0.359  0.00  0.00    +0.000 HD
ATOM      8  H   UNL     1      15.275  10.299   4.677  0.00  0.00    +0.000 HD
ATOM      9  H   UNL     1      16.946   8.357   0.427  0.00  0.00    +0.000 HD
ATOM     10  H   UNL     1      16.902   8.454   4.723  0.00  0.00    +0.000 HD
ATOM     11  H   UNL     1      17.743   7.476   2.604  0.00  0.00    +0.000 HD
ENDROOT
BRANCH   1  13
ATOM     12  O   UNL     1      13.475  11.746   3.424  0.00  0.00    +0.000 OA
ATOM     13  C   UNL     1      14.220  11.473   2.478  0.00  0.00    +0.000 C 
ATOM     14  H   UNL     1      14.178  12.067   1.549  0.00  0.00    +0.000 HD
ENDBRANCH   1  13
TORSDOF 1
ENDMDL
MODEL 9
REMARK VINA RESULT:    -4.143     20.106     20.997
REMARK INTER + INTRA:          -4.398
REMARK INTER:                  -4.384
REMARK INTRA:                  -0.014
REMARK UNBOUND:                -0.013
REMARK  Name = 240
REMARK  1 active torsions:
REMARK  status: ('A' for Active; 'I' for Inactive)
REMARK    1  A    between atoms: C_2  and  C_8
REMARK                            x       y       z     vdW  Elec       q    Type
REMARK                         _______ _______ _______ _____ _____    ______ ____
ROOT
ATOM      1  C   UNL     1      15.479  10.110   3.627  0.00  0.00    +0.000 A 
ATOM      2  C   UNL     1      16.346   9.043   3.865  0.00  0.00    +0.000 A 
ATOM      3  C   UNL     1      15.179  10.486   2.318  0.00  0.00    +0.000 A 
ATOM      4  C   UNL     1      16.912   8.353   2.793  0.00  0.00    +0.000 A 
ATOM      5  C   UNL     1      15.746   9.796   1.247  0.00  0.00    +0.000 A 
ATOM      6  C   UNL     1      16.613   8.729   1.485  0.00  0.00    +0.000 A 
ATOM      7  H   UNL     1      16.589   8.738   4.880  0.00  0.00    +0.000 HD
ATOM      8  H   UNL     1      14.506  11.314   2.110  0.00  0.00    +0.000 HD
ATOM      9  H   UNL     1      17.588   7.522   2.979  0.00  0.00    +0.000 HD
ATOM     10  H   UNL     1      15.512  10.089   0.227  0.00  0.00    +0.000 HD
ATOM     11  H   UNL     1      17.054   8.192   0.651  0.00  0.00    +0.000 HD
ENDROOT
BRANCH   1  13
ATOM     12  O   UNL     1      14.935  10.423   5.909  0.00  0.00    +0.000 OA
ATOM     13  C   UNL     1      14.888  10.830   4.745  0.00  0.00    +0.000 C 
ATOM     14  H   UNL     1      14.382  11.781   4.509  0.00  0.00    +0.000 HD
ENDBRANCH   1  13
TORSDOF 1
ENDMDL
MODEL 10
REMARK VINA RESULT:    -4.100     18.546     19.223
REMARK INTER + INTRA:          -4.352
REMARK INTER:                  -4.343
REMARK INTRA:                  -0.009
REMARK UNBOUND:                -0.013
REMARK  Name = 240
REMARK  1 active torsions:
REMARK  status: ('A' for Active; 'I' for Inactive)
REMARK    1  A    between atoms: C_2  and  C_8
REMARK                            x       y       z     vdW  Elec       q    Type
REMARK                         _______ _______ _______ _____ _____    ______ ____
ROOT
ATOM      1  C   UNL     1       3.172  -5.176  15.375  0.00  0.00    +0.000 A 
ATOM      2  C   UNL     1       1.795  -5.228  15.592  0.00  0.00    +0.000 A 
ATOM      3  C   UNL     1       3.776  -3.972  15.013  0.00  0.00    +0.000 A 
ATOM      4  C   UNL     1       1.022  -4.076  15.446  0.00  0.00    +0.000 A 
ATOM      5  C   UNL     1       3.003  -2.820  14.868  0.00  0.00    +0.000 A 
ATOM      6  C   UNL     1       1.625  -2.872  15.084  0.00  0.00    +0.000 A 
ATOM      7  H   UNL     1       1.310  -6.159  15.875  0.00  0.00    +0.000 HD
ATOM      8  H   UNL     1       4.847  -3.908  14.840  0.00  0.00    +0.000 HD
ATOM      9  H   UNL     1      -0.051  -4.117  15.615  0.00  0.00    +0.000 HD
ATOM     10  H   UNL     1       3.473  -1.882  14.586  0.00  0.00    +0.000 HD
ATOM     11  H   UNL     1       1.024  -1.976  14.971  0.00  0.00    +0.000 HD
ENDROOT
BRANCH   1  13
ATOM     12  O   UNL     1       4.459  -6.992  14.571  0.00  0.00    +0.000 OA
ATOM     13  C   UNL     1       3.978  -6.377  15.527  0.00  0.00    +0.000 C 
ATOM     14  H   UNL     1       4.150  -6.731  16.558  0.00  0.00    +0.000 HD
ENDBRANCH   1  13
TORSDOF 1
ENDMDL
