MODEL 1
REMARK VINA RESULT:    -4.024      0.000      0.000
REMARK INTER + INTRA:          -5.264
REMARK INTER:                  -5.152
REMARK INTRA:                  -0.111
REMARK UNBOUND:                -0.063
REMARK  Name = 31272
REMARK  6 active torsions:
REMARK  status: ('A' for Active; 'I' for Inactive)
REMARK    1  A    between atoms: O_1  and  C_5
REMARK    2  A    between atoms: O_1  and  C_7
REMARK    3  A    between atoms: C_3  and  C_4
REMARK    4  A    between atoms: C_3  and  C_5
REMARK    5  A    between atoms: C_4  and  C_6
REMARK    6  A    between atoms: C_7  and  C_8
REMARK                            x       y       z     vdW  Elec       q    Type
REMARK                         _______ _______ _______ _____ _____    ______ ____
ROOT
ATOM      1  C   UNL     1       1.476  -3.803  15.475  0.00  0.00    +0.000 C 
ATOM      2  H   UNL     1       2.026  -4.003  16.402  0.00  0.00    +0.000 HD
ATOM      3  H   UNL     1       0.446  -3.577  15.780  0.00  0.00    +0.000 HD
ENDROOT
BRANCH   1   4
ATOM      4  C   UNL     1       2.084  -2.608  14.745  0.00  0.00    +0.000 C 
ATOM      5  H   UNL     1       1.728  -1.674  15.198  0.00  0.00    +0.000 HD
ATOM      6  H   UNL     1       1.760  -2.606  13.699  0.00  0.00    +0.000 HD
BRANCH   4   7
ATOM      7  C   UNL     1       3.603  -2.637  14.801  0.00  0.00    +0.000 C 
ATOM      8  H   UNL     1       3.992  -1.797  15.384  0.00  0.00    +0.000 HD
ATOM      9  H   UNL     1       3.961  -3.566  15.256  0.00  0.00    +0.000 HD
ATOM     10  H   UNL     1       4.020  -2.570  13.790  0.00  0.00    +0.000 HD
ENDBRANCH   4   7
ENDBRANCH   1   4
BRANCH   1  11
ATOM     11  C   UNL     1       1.478  -5.052  14.605  0.00  0.00    +0.000 C 
ATOM     12  H   UNL     1       1.575  -4.774  13.549  0.00  0.00    +0.000 HD
ATOM     13  H   UNL     1       2.316  -5.701  14.883  0.00  0.00    +0.000 HD
BRANCH  11  14
ATOM     14  O   UNL     1       0.255  -5.749  14.799  0.00  0.00    +0.000 OA
BRANCH  14  16
ATOM     15  O   UNL     1       0.998  -7.800  15.560  0.00  0.00    +0.000 OA
ATOM     16  C   UNL     1       0.299  -6.801  15.671  0.00  0.00    +0.000 C 
BRANCH  16  17
ATOM     17  C   UNL     1      -0.645  -6.562  16.810  0.00  0.00    +0.000 C 
ATOM     18  H   UNL     1      -0.942  -5.509  16.830  0.00  0.00    +0.000 HD
ATOM     19  H   UNL     1      -0.169  -6.845  17.752  0.00  0.00    +0.000 HD
ATOM     20  H   UNL     1      -1.541  -7.174  16.674  0.00  0.00    +0.000 HD
ENDBRANCH  16  17
ENDBRANCH  14  16
ENDBRANCH  11  14
ENDBRANCH   1  11
TORSDOF 6
ENDMDL
MODEL 2
REMARK VINA RESULT:    -3.816     15.570     16.497
REMARK INTER + INTRA:          -4.995
REMARK INTER:                  -4.769
REMARK INTRA:                  -0.226
REMARK UNBOUND:                -0.063
REMARK  Name = 31272
REMARK  6 active torsions:
REMARK  status: ('A' for Active; 'I' for Inactive)
REMARK    1  A    between atoms: O_1  and  C_5
REMARK    2  A    between atoms: O_1  and  C_7
REMARK    3  A    between atoms: C_3  and  C_4
REMARK    4  A    between atoms: C_3  and  C_5
REMARK    5  A    between atoms: C_4  and  C_6
REMARK    6  A    between atoms: C_7  and  C_8
REMARK                            x       y       z     vdW  Elec       q    Type
REMARK                         _______ _______ _______ _____ _____    ______ ____
ROOT
ATOM      1  C   UNL     1       3.700  -3.002  -0.048  0.00  0.00    +0.000 C 
ATOM      2  H   UNL     1       3.422  -2.285   0.734  0.00  0.00    +0.000 HD
ATOM      3  H   UNL     1       2.845  -3.682  -0.149  0.00  0.00    +0.000 HD
ENDROOT
BRANCH   1   4
ATOM      4  C   UNL     1       3.953  -2.274  -1.366  0.00  0.00    +0.000 C 
ATOM      5  H   UNL     1       4.388  -1.286  -1.169  0.00  0.00    +0.000 HD
ATOM      6  H   UNL     1       3.004  -2.112  -1.890  0.00  0.00    +0.000 HD
BRANCH   4   7
ATOM      7  C   UNL     1       4.894  -3.059  -2.265  0.00  0.00    +0.000 C 
ATOM      8  H   UNL     1       5.849  -3.248  -1.765  0.00  0.00    +0.000 HD
ATOM      9  H   UNL     1       4.456  -4.023  -2.544  0.00  0.00    +0.000 HD
ATOM     10  H   UNL     1       5.097  -2.499  -3.183  0.00  0.00    +0.000 HD
ENDBRANCH   4   7
ENDBRANCH   1   4
BRANCH   1  11
ATOM     11  C   UNL     1       4.920  -3.793   0.399  0.00  0.00    +0.000 C 
ATOM     12  H   UNL     1       4.622  -4.570   1.113  0.00  0.00    +0.000 HD
ATOM     13  H   UNL     1       5.399  -4.265  -0.466  0.00  0.00    +0.000 HD
BRANCH  11  14
ATOM     14  O   UNL     1       5.838  -2.907   1.024  0.00  0.00    +0.000 OA
BRANCH  14  16
ATOM     15  O   UNL     1       7.700  -4.115   0.385  0.00  0.00    +0.000 OA
ATOM     16  C   UNL     1       7.150  -3.060   0.671  0.00  0.00    +0.000 C 
BRANCH  16  17
ATOM     17  C   UNL     1       7.840  -1.729   0.680  0.00  0.00    +0.000 C 
ATOM     18  H   UNL     1       8.767  -1.789   0.102  0.00  0.00    +0.000 HD
ATOM     19  H   UNL     1       8.048  -1.427   1.709  0.00  0.00    +0.000 HD
ATOM     20  H   UNL     1       7.190  -0.980   0.220  0.00  0.00    +0.000 HD
ENDBRANCH  16  17
ENDBRANCH  14  16
ENDBRANCH  11  14
ENDBRANCH   1  11
TORSDOF 6
ENDMDL
MODEL 3
REMARK VINA RESULT:    -3.676     16.690     17.470
REMARK INTER + INTRA:          -4.813
REMARK INTER:                  -4.726
REMARK INTRA:                  -0.087
REMARK UNBOUND:                -0.063
REMARK  Name = 31272
REMARK  6 active torsions:
REMARK  status: ('A' for Active; 'I' for Inactive)
REMARK    1  A    between atoms: O_1  and  C_5
REMARK    2  A    between atoms: O_1  and  C_7
REMARK    3  A    between atoms: C_3  and  C_4
REMARK    4  A    between atoms: C_3  and  C_5
REMARK    5  A    between atoms: C_4  and  C_6
REMARK    6  A    between atoms: C_7  and  C_8
REMARK                            x       y       z     vdW  Elec       q    Type
REMARK                         _______ _______ _______ _____ _____    ______ ____
ROOT
ATOM      1  C   UNL     1       5.281  -2.973  -0.462  0.00  0.00    +0.000 C 
ATOM      2  H   UNL     1       5.069  -2.448   0.477  0.00  0.00    +0.000 HD
ATOM      3  H   UNL     1       5.160  -4.041  -0.243  0.00  0.00    +0.000 HD
ENDROOT
BRANCH   1   4
ATOM      4  C   UNL     1       4.293  -2.541  -1.543  0.00  0.00    +0.000 C 
ATOM      5  H   UNL     1       4.267  -3.289  -2.345  0.00  0.00    +0.000 HD
ATOM      6  H   UNL     1       4.621  -1.596  -1.991  0.00  0.00    +0.000 HD
BRANCH   4   7
ATOM      7  C   UNL     1       2.892  -2.369  -0.980  0.00  0.00    +0.000 C 
ATOM      8  H   UNL     1       2.923  -1.982   0.043  0.00  0.00    +0.000 HD
ATOM      9  H   UNL     1       2.306  -1.675  -1.592  0.00  0.00    +0.000 HD
ATOM     10  H   UNL     1       2.370  -3.332  -0.963  0.00  0.00    +0.000 HD
ENDBRANCH   4   7
ENDBRANCH   1   4
BRANCH   1  11
ATOM     11  C   UNL     1       6.720  -2.706  -0.878  0.00  0.00    +0.000 C 
ATOM     12  H   UNL     1       7.321  -3.615  -0.755  0.00  0.00    +0.000 HD
ATOM     13  H   UNL     1       6.756  -2.392  -1.927  0.00  0.00    +0.000 HD
BRANCH  11  14
ATOM     14  O   UNL     1       7.252  -1.675  -0.057  0.00  0.00    +0.000 OA
BRANCH  14  16
ATOM     15  O   UNL     1       9.184  -1.765   1.205  0.00  0.00    +0.000 OA
ATOM     16  C   UNL     1       8.606  -1.699   0.129  0.00  0.00    +0.000 C 
BRANCH  16  17
ATOM     17  C   UNL     1       9.306  -1.633  -1.196  0.00  0.00    +0.000 C 
ATOM     18  H   UNL     1       9.406  -2.639  -1.612  0.00  0.00    +0.000 HD
ATOM     19  H   UNL     1      10.287  -1.167  -1.073  0.00  0.00    +0.000 HD
ATOM     20  H   UNL     1       8.715  -1.026  -1.888  0.00  0.00    +0.000 HD
ENDBRANCH  16  17
ENDBRANCH  14  16
ENDBRANCH  11  14
ENDBRANCH   1  11
TORSDOF 6
ENDMDL
MODEL 4
REMARK VINA RESULT:    -3.625     16.373     17.537
REMARK INTER + INTRA:          -4.748
REMARK INTER:                  -4.538
REMARK INTRA:                  -0.209
REMARK UNBOUND:                -0.063
REMARK  Name = 31272
REMARK  6 active torsions:
REMARK  status: ('A' for Active; 'I' for Inactive)
REMARK    1  A    between atoms: O_1  and  C_5
REMARK    2  A    between atoms: O_1  and  C_7
REMARK    3  A    between atoms: C_3  and  C_4
REMARK    4  A    between atoms: C_3  and  C_5
REMARK    5  A    between atoms: C_4  and  C_6
REMARK    6  A    between atoms: C_7  and  C_8
REMARK                            x       y       z     vdW  Elec       q    Type
REMARK                         _______ _______ _______ _____ _____    ______ ____
ROOT
ATOM      1  C   UNL     1       4.986  -2.719  -1.711  0.00  0.00    +0.000 C 
ATOM      2  H   UNL     1       4.852  -3.527  -2.441  0.00  0.00    +0.000 HD
ATOM      3  H   UNL     1       5.124  -1.803  -2.299  0.00  0.00    +0.000 HD
ENDROOT
BRANCH   1   4
ATOM      4  C   UNL     1       3.749  -2.597  -0.825  0.00  0.00    +0.000 C 
ATOM      5  H   UNL     1       2.878  -3.024  -1.339  0.00  0.00    +0.000 HD
ATOM      6  H   UNL     1       3.529  -1.540  -0.638  0.00  0.00    +0.000 HD
BRANCH   4   7
ATOM      7  C   UNL     1       3.941  -3.312   0.502  0.00  0.00    +0.000 C 
ATOM      8  H   UNL     1       3.399  -2.804   1.305  0.00  0.00    +0.000 HD
ATOM      9  H   UNL     1       3.582  -4.345   0.446  0.00  0.00    +0.000 HD
ATOM     10  H   UNL     1       5.003  -3.335   0.770  0.00  0.00    +0.000 HD
ENDBRANCH   4   7
ENDBRANCH   1   4
BRANCH   1  11
ATOM     11  C   UNL     1       6.240  -2.982  -0.890  0.00  0.00    +0.000 C 
ATOM     12  H   UNL     1       6.138  -2.534   0.106  0.00  0.00    +0.000 HD
ATOM     13  H   UNL     1       6.400  -4.060  -0.784  0.00  0.00    +0.000 HD
BRANCH  11  14
ATOM     14  O   UNL     1       7.354  -2.401  -1.555  0.00  0.00    +0.000 OA
BRANCH  14  16
ATOM     15  O   UNL     1       9.244  -1.141  -1.137  0.00  0.00    +0.000 OA
ATOM     16  C   UNL     1       8.216  -1.692  -0.766  0.00  0.00    +0.000 C 
BRANCH  16  17
ATOM     17  C   UNL     1       7.722  -1.678   0.649  0.00  0.00    +0.000 C 
ATOM     18  H   UNL     1       7.263  -0.710   0.871  0.00  0.00    +0.000 HD
ATOM     19  H   UNL     1       8.551  -1.876   1.333  0.00  0.00    +0.000 HD
ATOM     20  H   UNL     1       6.968  -2.459   0.778  0.00  0.00    +0.000 HD
ENDBRANCH  16  17
ENDBRANCH  14  16
ENDBRANCH  11  14
ENDBRANCH   1  11
TORSDOF 6
ENDMDL
MODEL 5
REMARK VINA RESULT:    -3.572     18.443     19.395
REMARK INTER + INTRA:          -4.679
REMARK INTER:                  -4.495
REMARK INTRA:                  -0.184
REMARK UNBOUND:                -0.063
REMARK  Name = 31272
REMARK  6 active torsions:
REMARK  status: ('A' for Active; 'I' for Inactive)
REMARK    1  A    between atoms: O_1  and  C_5
REMARK    2  A    between atoms: O_1  and  C_7
REMARK    3  A    between atoms: C_3  and  C_4
REMARK    4  A    between atoms: C_3  and  C_5
REMARK    5  A    between atoms: C_4  and  C_6
REMARK    6  A    between atoms: C_7  and  C_8
REMARK                            x       y       z     vdW  Elec       q    Type
REMARK                         _______ _______ _______ _____ _____    ______ ____
ROOT
ATOM      1  C   UNL     1       8.015 -10.934  -0.222  0.00  0.00    +0.000 C 
ATOM      2  H   UNL     1       6.938 -11.043  -0.402  0.00  0.00    +0.000 HD
ATOM      3  H   UNL     1       8.171 -11.197   0.832  0.00  0.00    +0.000 HD
ENDROOT
BRANCH   1   4
ATOM      4  C   UNL     1       8.801 -11.882  -1.124  0.00  0.00    +0.000 C 
ATOM      5  H   UNL     1       9.801 -12.051  -0.707  0.00  0.00    +0.000 HD
ATOM      6  H   UNL     1       8.934 -11.429  -2.113  0.00  0.00    +0.000 HD
BRANCH   4   7
ATOM      7  C   UNL     1       8.094 -13.219  -1.276  0.00  0.00    +0.000 C 
ATOM      8  H   UNL     1       8.412 -13.730  -2.190  0.00  0.00    +0.000 HD
ATOM      9  H   UNL     1       8.307 -13.873  -0.424  0.00  0.00    +0.000 HD
ATOM     10  H   UNL     1       7.011 -13.071  -1.329  0.00  0.00    +0.000 HD
ENDBRANCH   4   7
ENDBRANCH   1   4
BRANCH   1  11
ATOM     11  C   UNL     1       8.420  -9.484  -0.442  0.00  0.00    +0.000 C 
ATOM     12  H   UNL     1       8.108  -9.154  -1.441  0.00  0.00    +0.000 HD
ATOM     13  H   UNL     1       7.947  -8.843   0.311  0.00  0.00    +0.000 HD
BRANCH  11  14
ATOM     14  O   UNL     1       9.833  -9.380  -0.332  0.00  0.00    +0.000 OA
BRANCH  14  16
ATOM     15  O   UNL     1      10.234  -7.303  -1.259  0.00  0.00    +0.000 OA
ATOM     16  C   UNL     1      10.436  -8.508  -1.195  0.00  0.00    +0.000 C 
BRANCH  16  17
ATOM     17  C   UNL     1      11.402  -9.244  -2.074  0.00  0.00    +0.000 C 
ATOM     18  H   UNL     1      10.872 -10.008  -2.649  0.00  0.00    +0.000 HD
ATOM     19  H   UNL     1      12.187  -9.697  -1.463  0.00  0.00    +0.000 HD
ATOM     20  H   UNL     1      11.865  -8.541  -2.773  0.00  0.00    +0.000 HD
ENDBRANCH  16  17
ENDBRANCH  14  16
ENDBRANCH  11  14
ENDBRANCH   1  11
TORSDOF 6
ENDMDL
MODEL 6
REMARK VINA RESULT:    -3.436     18.074     18.668
REMARK INTER + INTRA:          -4.504
REMARK INTER:                  -4.396
REMARK INTRA:                  -0.108
REMARK UNBOUND:                -0.063
REMARK  Name = 31272
REMARK  6 active torsions:
REMARK  status: ('A' for Active; 'I' for Inactive)
REMARK    1  A    between atoms: O_1  and  C_5
REMARK    2  A    between atoms: O_1  and  C_7
REMARK    3  A    between atoms: C_3  and  C_4
REMARK    4  A    between atoms: C_3  and  C_5
REMARK    5  A    between atoms: C_4  and  C_6
REMARK    6  A    between atoms: C_7  and  C_8
REMARK                            x       y       z     vdW  Elec       q    Type
REMARK                         _______ _______ _______ _____ _____    ______ ____
ROOT
ATOM      1  C   UNL     1       9.824 -10.343  -1.209  0.00  0.00    +0.000 C 
ATOM      2  H   UNL     1       9.444 -10.746  -2.156  0.00  0.00    +0.000 HD
ATOM      3  H   UNL     1      10.385 -11.160  -0.739  0.00  0.00    +0.000 HD
ENDROOT
BRANCH   1   4
ATOM      4  C   UNL     1      10.744  -9.153  -1.473  0.00  0.00    +0.000 C 
ATOM      5  H   UNL     1      11.212  -8.829  -0.535  0.00  0.00    +0.000 HD
ATOM      6  H   UNL     1      10.159  -8.308  -1.853  0.00  0.00    +0.000 HD
BRANCH   4   7
ATOM      7  C   UNL     1      11.832  -9.502  -2.475  0.00  0.00    +0.000 C 
ATOM      8  H   UNL     1      12.805  -9.595  -1.984  0.00  0.00    +0.000 HD
ATOM      9  H   UNL     1      11.610 -10.449  -2.980  0.00  0.00    +0.000 HD
ATOM     10  H   UNL     1      11.909  -8.720  -3.238  0.00  0.00    +0.000 HD
ENDBRANCH   4   7
ENDBRANCH   1   4
BRANCH   1  11
ATOM     11  C   UNL     1       8.653  -9.960  -0.316  0.00  0.00    +0.000 C 
ATOM     12  H   UNL     1       8.895 -10.175   0.732  0.00  0.00    +0.000 HD
ATOM     13  H   UNL     1       8.435  -8.891  -0.421  0.00  0.00    +0.000 HD
BRANCH  11  14
ATOM     14  O   UNL     1       7.514 -10.717  -0.701  0.00  0.00    +0.000 OA
BRANCH  14  16
ATOM     15  O   UNL     1       6.947 -11.800   1.258  0.00  0.00    +0.000 OA
ATOM     16  C   UNL     1       7.237 -11.811   0.069  0.00  0.00    +0.000 C 
BRANCH  16  17
ATOM     17  C   UNL     1       7.336 -13.058  -0.758  0.00  0.00    +0.000 C 
ATOM     18  H   UNL     1       6.360 -13.292  -1.193  0.00  0.00    +0.000 HD
ATOM     19  H   UNL     1       7.690 -13.886  -0.138  0.00  0.00    +0.000 HD
ATOM     20  H   UNL     1       8.051 -12.899  -1.570  0.00  0.00    +0.000 HD
ENDBRANCH  16  17
ENDBRANCH  14  16
ENDBRANCH  11  14
ENDBRANCH   1  11
TORSDOF 6
ENDMDL
MODEL 7
REMARK VINA RESULT:    -3.399     17.519     18.165
REMARK INTER + INTRA:          -4.455
REMARK INTER:                  -4.295
REMARK INTRA:                  -0.161
REMARK UNBOUND:                -0.063
REMARK  Name = 31272
REMARK  6 active torsions:
REMARK  status: ('A' for Active; 'I' for Inactive)
REMARK    1  A    between atoms: O_1  and  C_5
REMARK    2  A    between atoms: O_1  and  C_7
REMARK    3  A    between atoms: C_3  and  C_4
REMARK    4  A    between atoms: C_3  and  C_5
REMARK    5  A    between atoms: C_4  and  C_6
REMARK    6  A    between atoms: C_7  and  C_8
REMARK                            x       y       z     vdW  Elec       q    Type
REMARK                         _______ _______ _______ _____ _____    ______ ____
ROOT
ATOM      1  C   UNL     1       8.905 -11.753  -1.314  0.00  0.00    +0.000 C 
ATOM      2  H   UNL     1       8.345 -11.711  -2.256  0.00  0.00    +0.000 HD
ATOM      3  H   UNL     1       9.698 -12.496  -1.470  0.00  0.00    +0.000 HD
ENDROOT
BRANCH   1   4
ATOM      4  C   UNL     1       9.514 -10.389  -1.000  0.00  0.00    +0.000 C 
ATOM      5  H   UNL     1      10.061 -10.014  -1.874  0.00  0.00    +0.000 HD
ATOM      6  H   UNL     1      10.236 -10.484  -0.181  0.00  0.00    +0.000 HD
BRANCH   4   7
ATOM      7  C   UNL     1       8.446  -9.379  -0.613  0.00  0.00    +0.000 C 
ATOM      8  H   UNL     1       7.874  -9.723   0.254  0.00  0.00    +0.000 HD
ATOM      9  H   UNL     1       8.894  -8.410  -0.366  0.00  0.00    +0.000 HD
ATOM     10  H   UNL     1       7.748  -9.229  -1.443  0.00  0.00    +0.000 HD
ENDBRANCH   4   7
ENDBRANCH   1   4
BRANCH   1  11
ATOM     11  C   UNL     1       7.986 -12.228  -0.199  0.00  0.00    +0.000 C 
ATOM     12  H   UNL     1       8.433 -13.087   0.316  0.00  0.00    +0.000 HD
ATOM     13  H   UNL     1       7.825 -11.421   0.524  0.00  0.00    +0.000 HD
BRANCH  11  14
ATOM     14  O   UNL     1       6.740 -12.614  -0.763  0.00  0.00    +0.000 OA
BRANCH  14  16
ATOM     15  O   UNL     1       5.525 -12.229   1.163  0.00  0.00    +0.000 OA
ATOM     16  C   UNL     1       5.627 -12.253  -0.057  0.00  0.00    +0.000 C 
BRANCH  16  17
ATOM     17  C   UNL     1       4.522 -11.880  -0.998  0.00  0.00    +0.000 C 
ATOM     18  H   UNL     1       3.779 -12.682  -1.033  0.00  0.00    +0.000 HD
ATOM     19  H   UNL     1       4.931 -11.691  -1.994  0.00  0.00    +0.000 HD
ATOM     20  H   UNL     1       4.034 -10.968  -0.642  0.00  0.00    +0.000 HD
ENDBRANCH  16  17
ENDBRANCH  14  16
ENDBRANCH  11  14
ENDBRANCH   1  11
TORSDOF 6
ENDMDL
MODEL 8
REMARK VINA RESULT:    -3.372     15.673     16.288
REMARK INTER + INTRA:          -4.421
REMARK INTER:                  -4.354
REMARK INTRA:                  -0.067
REMARK UNBOUND:                -0.063
REMARK  Name = 31272
REMARK  6 active torsions:
REMARK  status: ('A' for Active; 'I' for Inactive)
REMARK    1  A    between atoms: O_1  and  C_5
REMARK    2  A    between atoms: O_1  and  C_7
REMARK    3  A    between atoms: C_3  and  C_4
REMARK    4  A    between atoms: C_3  and  C_5
REMARK    5  A    between atoms: C_4  and  C_6
REMARK    6  A    between atoms: C_7  and  C_8
REMARK                            x       y       z     vdW  Elec       q    Type
REMARK                         _______ _______ _______ _____ _____    ______ ____
ROOT
ATOM      1  C   UNL     1       6.798 -11.903   0.864  0.00  0.00    +0.000 C 
ATOM      2  H   UNL     1       7.420 -12.686   1.316  0.00  0.00    +0.000 HD
ATOM      3  H   UNL     1       6.830 -11.055   1.558  0.00  0.00    +0.000 HD
ENDROOT
BRANCH   1   4
ATOM      4  C   UNL     1       7.367 -11.496  -0.494  0.00  0.00    +0.000 C 
ATOM      5  H   UNL     1       6.554 -11.393  -1.223  0.00  0.00    +0.000 HD
ATOM      6  H   UNL     1       8.039 -12.277  -0.865  0.00  0.00    +0.000 HD
BRANCH   4   7
ATOM      7  C   UNL     1       8.125 -10.181  -0.408  0.00  0.00    +0.000 C 
ATOM      8  H   UNL     1       8.956 -10.251   0.300  0.00  0.00    +0.000 HD
ATOM      9  H   UNL     1       8.529  -9.897  -1.385  0.00  0.00    +0.000 HD
ATOM     10  H   UNL     1       7.458  -9.381  -0.070  0.00  0.00    +0.000 HD
ENDBRANCH   4   7
ENDBRANCH   1   4
BRANCH   1  11
ATOM     11  C   UNL     1       5.365 -12.401   0.745  0.00  0.00    +0.000 C 
ATOM     12  H   UNL     1       4.813 -11.787   0.023  0.00  0.00    +0.000 HD
ATOM     13  H   UNL     1       5.357 -13.444   0.410  0.00  0.00    +0.000 HD
BRANCH  11  14
ATOM     14  O   UNL     1       4.740 -12.306   2.018  0.00  0.00    +0.000 OA
BRANCH  14  16
ATOM     15  O   UNL     1       2.878 -11.199   1.217  0.00  0.00    +0.000 OA
ATOM     16  C   UNL     1       3.417 -11.961   2.008  0.00  0.00    +0.000 C 
BRANCH  16  17
ATOM     17  C   UNL     1       2.698 -12.658   3.124  0.00  0.00    +0.000 C 
ATOM     18  H   UNL     1       2.884 -13.734   3.068  0.00  0.00    +0.000 HD
ATOM     19  H   UNL     1       1.627 -12.447   3.063  0.00  0.00    +0.000 HD
ATOM     20  H   UNL     1       3.072 -12.289   4.083  0.00  0.00    +0.000 HD
ENDBRANCH  16  17
ENDBRANCH  14  16
ENDBRANCH  11  14
ENDBRANCH   1  11
TORSDOF 6
ENDMDL
MODEL 9
REMARK VINA RESULT:    -3.369     15.686     16.732
REMARK INTER + INTRA:          -4.416
REMARK INTER:                  -4.353
REMARK INTRA:                  -0.063
REMARK UNBOUND:                -0.063
REMARK  Name = 31272
REMARK  6 active torsions:
REMARK  status: ('A' for Active; 'I' for Inactive)
REMARK    1  A    between atoms: O_1  and  C_5
REMARK    2  A    between atoms: O_1  and  C_7
REMARK    3  A    between atoms: C_3  and  C_4
REMARK    4  A    between atoms: C_3  and  C_5
REMARK    5  A    between atoms: C_4  and  C_6
REMARK    6  A    between atoms: C_7  and  C_8
REMARK                            x       y       z     vdW  Elec       q    Type
REMARK                         _______ _______ _______ _____ _____    ______ ____
ROOT
ATOM      1  C   UNL     1      -7.707   6.843  20.892  0.00  0.00    +0.000 C 
ATOM      2  H   UNL     1      -7.591   7.358  21.854  0.00  0.00    +0.000 HD
ATOM      3  H   UNL     1      -6.760   6.989  20.357  0.00  0.00    +0.000 HD
ENDROOT
BRANCH   1   4
ATOM      4  C   UNL     1      -7.962   5.355  21.118  0.00  0.00    +0.000 C 
ATOM      5  H   UNL     1      -8.825   5.030  20.522  0.00  0.00    +0.000 HD
ATOM      6  H   UNL     1      -8.208   5.175  22.170  0.00  0.00    +0.000 HD
BRANCH   4   7
ATOM      7  C   UNL     1      -6.752   4.518  20.734  0.00  0.00    +0.000 C 
ATOM      8  H   UNL     1      -5.973   5.138  20.282  0.00  0.00    +0.000 HD
ATOM      9  H   UNL     1      -6.328   4.018  21.611  0.00  0.00    +0.000 HD
ATOM     10  H   UNL     1      -7.038   3.749  20.009  0.00  0.00    +0.000 HD
ENDBRANCH   4   7
ENDBRANCH   1   4
BRANCH   1  11
ATOM     11  C   UNL     1      -8.834   7.493  20.103  0.00  0.00    +0.000 C 
ATOM     12  H   UNL     1      -9.485   6.721  19.675  0.00  0.00    +0.000 HD
ATOM     13  H   UNL     1      -9.427   8.140  20.758  0.00  0.00    +0.000 HD
BRANCH  11  14
ATOM     14  O   UNL     1      -8.272   8.268  19.054  0.00  0.00    +0.000 OA
BRANCH  14  16
ATOM     15  O   UNL     1      -9.725   7.684  17.356  0.00  0.00    +0.000 OA
ATOM     16  C   UNL     1      -9.093   8.519  17.990  0.00  0.00    +0.000 C 
BRANCH  16  17
ATOM     17  C   UNL     1      -9.120   9.989  17.698  0.00  0.00    +0.000 C 
ATOM     18  H   UNL     1     -10.153  10.321  17.563  0.00  0.00    +0.000 HD
ATOM     19  H   UNL     1      -8.527  10.200  16.804  0.00  0.00    +0.000 HD
ATOM     20  H   UNL     1      -8.686  10.534  18.541  0.00  0.00    +0.000 HD
ENDBRANCH  16  17
ENDBRANCH  14  16
ENDBRANCH  11  14
ENDBRANCH   1  11
TORSDOF 6
ENDMDL
MODEL 10
REMARK VINA RESULT:    -3.289     16.219     17.268
REMARK INTER + INTRA:          -4.314
REMARK INTER:                  -4.178
REMARK INTRA:                  -0.135
REMARK UNBOUND:                -0.063
REMARK  Name = 31272
REMARK  6 active torsions:
REMARK  status: ('A' for Active; 'I' for Inactive)
REMARK    1  A    between atoms: O_1  and  C_5
REMARK    2  A    between atoms: O_1  and  C_7
REMARK    3  A    between atoms: C_3  and  C_4
REMARK    4  A    between atoms: C_3  and  C_5
REMARK    5  A    between atoms: C_4  and  C_6
REMARK    6  A    between atoms: C_7  and  C_8
REMARK                            x       y       z     vdW  Elec       q    Type
REMARK                         _______ _______ _______ _____ _____    ______ ____
ROOT
ATOM      1  C   UNL     1       8.693  -1.484  -0.614  0.00  0.00    +0.000 C 
ATOM      2  H   UNL     1       8.926  -0.465  -0.283  0.00  0.00    +0.000 HD
ATOM      3  H   UNL     1       8.077  -1.373  -1.515  0.00  0.00    +0.000 HD
ENDROOT
BRANCH   1   4
ATOM      4  C   UNL     1       9.978  -2.240  -0.943  0.00  0.00    +0.000 C 
ATOM      5  H   UNL     1      10.102  -3.084  -0.252  0.00  0.00    +0.000 HD
ATOM      6  H   UNL     1      10.842  -1.581  -0.808  0.00  0.00    +0.000 HD
BRANCH   4   7
ATOM      7  C   UNL     1       9.965  -2.766  -2.369  0.00  0.00    +0.000 C 
ATOM      8  H   UNL     1       9.084  -2.410  -2.911  0.00  0.00    +0.000 HD
ATOM      9  H   UNL     1      10.858  -2.442  -2.914  0.00  0.00    +0.000 HD
ATOM     10  H   UNL     1       9.945  -3.861  -2.368  0.00  0.00    +0.000 HD
ENDBRANCH   4   7
ENDBRANCH   1   4
BRANCH   1  11
ATOM     11  C   UNL     1       7.884  -2.193   0.462  0.00  0.00    +0.000 C 
ATOM     12  H   UNL     1       8.283  -3.201   0.629  0.00  0.00    +0.000 HD
ATOM     13  H   UNL     1       7.931  -1.629   1.400  0.00  0.00    +0.000 HD
BRANCH  11  14
ATOM     14  O   UNL     1       6.533  -2.288   0.033  0.00  0.00    +0.000 OA
BRANCH  14  16
ATOM     15  O   UNL     1       6.632  -4.464  -0.735  0.00  0.00    +0.000 OA
ATOM     16  C   UNL     1       6.054  -3.554  -0.156  0.00  0.00    +0.000 C 
BRANCH  16  17
ATOM     17  C   UNL     1       4.692  -3.683   0.457  0.00  0.00    +0.000 C 
ATOM     18  H   UNL     1       4.099  -4.408  -0.108  0.00  0.00    +0.000 HD
ATOM     19  H   UNL     1       4.198  -2.708   0.471  0.00  0.00    +0.000 HD
ATOM     20  H   UNL     1       4.789  -4.040   1.487  0.00  0.00    +0.000 HD
ENDBRANCH  16  17
ENDBRANCH  14  16
ENDBRANCH  11  14
ENDBRANCH   1  11
TORSDOF 6
ENDMDL
