MODEL 1
REMARK VINA RESULT:    -6.137      0.000      0.000
REMARK INTER + INTRA:          -9.029
REMARK INTER:                  -8.321
REMARK INTRA:                  -0.708
REMARK UNBOUND:                -0.739
REMARK  Name = 24433
REMARK  7 active torsions:
REMARK  status: ('A' for Active; 'I' for Inactive)
REMARK    1  A    between atoms: O_1  and  C_6
REMARK    2  A    between atoms: O_1  and  C_9
REMARK    3  A    between atoms: N_3  and  C_10
REMARK    4  A    between atoms: C_4  and  C_5
REMARK    5  A    between atoms: C_4  and  C_6
REMARK    6  A    between atoms: C_5  and  C_7
REMARK    7  A    between atoms: C_8  and  C_9
REMARK                            x       y       z     vdW  Elec       q    Type
REMARK                         _______ _______ _______ _____ _____    ______ ____
ROOT
ATOM      1  O   UNL     1       7.883  -4.758  -0.473  0.00  0.00    +0.000 OA
ATOM      2  C   UNL     1       7.403  -3.725  -0.032  0.00  0.00    +0.000 C 
ENDROOT
BRANCH   2   3
ATOM      3  C   UNL     1       5.983  -3.340  -0.223  0.00  0.00    +0.000 A 
ATOM      4  C   UNL     1       5.109  -3.338   0.846  0.00  0.00    +0.000 A 
ATOM      5  C   UNL     1       5.579  -2.991  -1.498  0.00  0.00    +0.000 A 
ATOM      6  C   UNL     1       3.780  -2.972   0.634  0.00  0.00    +0.000 A 
ATOM      7  C   UNL     1       4.250  -2.625  -1.710  0.00  0.00    +0.000 A 
ATOM      8  C   UNL     1       3.350  -2.615  -0.644  0.00  0.00    +0.000 A 
ATOM      9  H   UNL     1       6.259  -2.974  -2.344  0.00  0.00    +0.000 HD
ATOM     10  H   UNL     1       3.069  -2.960   1.456  0.00  0.00    +0.000 HD
ATOM     11  H   UNL     1       3.915  -2.344  -2.704  0.00  0.00    +0.000 HD
ATOM     12  H   UNL     1       2.316  -2.330  -0.809  0.00  0.00    +0.000 HD
BRANCH   4  13
ATOM     13  N   UNL     1       5.525  -3.695   2.148  0.00  0.00    +0.000 N 
ATOM     14  H   UNL     1       6.483  -3.955   2.335  0.00  0.00    +0.000 HD
ATOM     15  H   UNL     1       4.851  -3.708   2.904  0.00  0.00    +0.000 HD
ENDBRANCH   4  13
ENDBRANCH   2   3
BRANCH   2  16
ATOM     16  O   UNL     1       8.068  -2.778   0.688  0.00  0.00    +0.000 OA
BRANCH  16  17
ATOM     17  C   UNL     1       8.434  -1.600  -0.017  0.00  0.00    +0.000 C 
ATOM     18  H   UNL     1       8.516  -0.764   0.689  0.00  0.00    +0.000 HD
ATOM     19  H   UNL     1       7.665  -1.366  -0.762  0.00  0.00    +0.000 HD
BRANCH  17  20
ATOM     20  C   UNL     1       9.772  -1.834  -0.704  0.00  0.00    +0.000 C 
ATOM     21  H   UNL     1      10.194  -2.788  -0.365  0.00  0.00    +0.000 HD
ATOM     22  H   UNL     1      10.482  -1.062  -0.384  0.00  0.00    +0.000 HD
BRANCH  20  23
ATOM     23  C   UNL     1       9.634  -1.827  -2.224  0.00  0.00    +0.000 C 
ATOM     24  H   UNL     1      10.097  -0.922  -2.636  0.00  0.00    +0.000 HD
ATOM     25  H   UNL     1       8.573  -1.802  -2.501  0.00  0.00    +0.000 HD
BRANCH  23  26
ATOM     26  C   UNL     1      10.287  -3.049  -2.848  0.00  0.00    +0.000 C 
ATOM     27  H   UNL     1      10.558  -2.859  -3.892  0.00  0.00    +0.000 HD
ATOM     28  H   UNL     1      11.193  -3.332  -2.303  0.00  0.00    +0.000 HD
ATOM     29  H   UNL     1       9.597  -3.899  -2.827  0.00  0.00    +0.000 HD
ENDBRANCH  23  26
ENDBRANCH  20  23
ENDBRANCH  17  20
ENDBRANCH  16  17
ENDBRANCH   2  16
TORSDOF 7
ENDMDL
MODEL 2
REMARK VINA RESULT:    -5.610      1.876      5.096
REMARK INTER + INTRA:          -8.317
REMARK INTER:                  -7.816
REMARK INTRA:                  -0.501
REMARK UNBOUND:                -0.739
REMARK  Name = 24433
REMARK  7 active torsions:
REMARK  status: ('A' for Active; 'I' for Inactive)
REMARK    1  A    between atoms: O_1  and  C_6
REMARK    2  A    between atoms: O_1  and  C_9
REMARK    3  A    between atoms: N_3  and  C_10
REMARK    4  A    between atoms: C_4  and  C_5
REMARK    5  A    between atoms: C_4  and  C_6
REMARK    6  A    between atoms: C_5  and  C_7
REMARK    7  A    between atoms: C_8  and  C_9
REMARK                            x       y       z     vdW  Elec       q    Type
REMARK                         _______ _______ _______ _____ _____    ______ ____
ROOT
ATOM      1  O   UNL     1       6.271  -3.835   0.956  0.00  0.00    +0.000 OA
ATOM      2  C   UNL     1       6.237  -3.052   0.019  0.00  0.00    +0.000 C 
ENDROOT
BRANCH   2   3
ATOM      3  C   UNL     1       7.444  -2.637  -0.740  0.00  0.00    +0.000 A 
ATOM      4  C   UNL     1       8.506  -2.040  -0.090  0.00  0.00    +0.000 A 
ATOM      5  C   UNL     1       7.458  -2.872  -2.101  0.00  0.00    +0.000 A 
ATOM      6  C   UNL     1       9.627  -1.661  -0.830  0.00  0.00    +0.000 A 
ATOM      7  C   UNL     1       8.578  -2.494  -2.841  0.00  0.00    +0.000 A 
ATOM      8  C   UNL     1       9.662  -1.889  -2.206  0.00  0.00    +0.000 A 
ATOM      9  H   UNL     1       6.636  -3.355  -2.622  0.00  0.00    +0.000 HD
ATOM     10  H   UNL     1      10.478  -1.189  -0.347  0.00  0.00    +0.000 HD
ATOM     11  H   UNL     1       8.608  -2.673  -3.912  0.00  0.00    +0.000 HD
ATOM     12  H   UNL     1      10.535  -1.595  -2.782  0.00  0.00    +0.000 HD
BRANCH   4  13
ATOM     13  N   UNL     1       8.489  -1.801   1.302  0.00  0.00    +0.000 N 
ATOM     14  H   UNL     1       8.782  -0.911   1.680  0.00  0.00    +0.000 HD
ATOM     15  H   UNL     1       8.195  -2.535   1.933  0.00  0.00    +0.000 HD
ENDBRANCH   4  13
ENDBRANCH   2   3
BRANCH   2  16
ATOM     16  O   UNL     1       5.122  -2.443  -0.475  0.00  0.00    +0.000 OA
BRANCH  16  17
ATOM     17  C   UNL     1       3.880  -3.037  -0.127  0.00  0.00    +0.000 C 
ATOM     18  H   UNL     1       3.687  -2.878   0.942  0.00  0.00    +0.000 HD
ATOM     19  H   UNL     1       3.920  -4.114  -0.327  0.00  0.00    +0.000 HD
BRANCH  17  20
ATOM     20  C   UNL     1       2.777  -2.394  -0.956  0.00  0.00    +0.000 C 
ATOM     21  H   UNL     1       1.801  -2.751  -0.604  0.00  0.00    +0.000 HD
ATOM     22  H   UNL     1       2.863  -2.732  -1.996  0.00  0.00    +0.000 HD
BRANCH  20  23
ATOM     23  C   UNL     1       2.838  -0.871  -0.889  0.00  0.00    +0.000 C 
ATOM     24  H   UNL     1       3.311  -0.477  -1.796  0.00  0.00    +0.000 HD
ATOM     25  H   UNL     1       3.458  -0.559  -0.040  0.00  0.00    +0.000 HD
BRANCH  23  26
ATOM     26  C   UNL     1       1.452  -0.264  -0.747  0.00  0.00    +0.000 C 
ATOM     27  H   UNL     1       1.513   0.812  -0.554  0.00  0.00    +0.000 HD
ATOM     28  H   UNL     1       0.861  -0.418  -1.656  0.00  0.00    +0.000 HD
ATOM     29  H   UNL     1       0.919  -0.728   0.089  0.00  0.00    +0.000 HD
ENDBRANCH  23  26
ENDBRANCH  20  23
ENDBRANCH  17  20
ENDBRANCH  16  17
ENDBRANCH   2  16
TORSDOF 7
ENDMDL
MODEL 3
REMARK VINA RESULT:    -5.551      8.532      9.292
REMARK INTER + INTRA:          -8.237
REMARK INTER:                  -7.661
REMARK INTRA:                  -0.576
REMARK UNBOUND:                -0.739
REMARK  Name = 24433
REMARK  7 active torsions:
REMARK  status: ('A' for Active; 'I' for Inactive)
REMARK    1  A    between atoms: O_1  and  C_6
REMARK    2  A    between atoms: O_1  and  C_9
REMARK    3  A    between atoms: N_3  and  C_10
REMARK    4  A    between atoms: C_4  and  C_5
REMARK    5  A    between atoms: C_4  and  C_6
REMARK    6  A    between atoms: C_5  and  C_7
REMARK    7  A    between atoms: C_8  and  C_9
REMARK                            x       y       z     vdW  Elec       q    Type
REMARK                         _______ _______ _______ _____ _____    ______ ____
ROOT
ATOM      1  O   UNL     1       5.903 -13.827  -0.733  0.00  0.00    +0.000 OA
ATOM      2  C   UNL     1       5.680 -12.712  -0.287  0.00  0.00    +0.000 C 
ENDROOT
BRANCH   2   3
ATOM      3  C   UNL     1       4.626 -12.434   0.720  0.00  0.00    +0.000 A 
ATOM      4  C   UNL     1       4.633 -13.087   1.937  0.00  0.00    +0.000 A 
ATOM      5  C   UNL     1       3.654 -11.509   0.393  0.00  0.00    +0.000 A 
ATOM      6  C   UNL     1       3.629 -12.804   2.864  0.00  0.00    +0.000 A 
ATOM      7  C   UNL     1       2.649 -11.226   1.319  0.00  0.00    +0.000 A 
ATOM      8  C   UNL     1       2.637 -11.874   2.554  0.00  0.00    +0.000 A 
ATOM      9  H   UNL     1       3.645 -10.977  -0.554  0.00  0.00    +0.000 HD
ATOM     10  H   UNL     1       3.608 -13.302   3.830  0.00  0.00    +0.000 HD
ATOM     11  H   UNL     1       1.879 -10.499   1.080  0.00  0.00    +0.000 HD
ATOM     12  H   UNL     1       1.856 -11.653   3.276  0.00  0.00    +0.000 HD
BRANCH   4  13
ATOM     13  N   UNL     1       5.629 -14.032   2.270  0.00  0.00    +0.000 N 
ATOM     14  H   UNL     1       5.998 -14.664   1.574  0.00  0.00    +0.000 HD
ATOM     15  H   UNL     1       5.968 -14.090   3.222  0.00  0.00    +0.000 HD
ENDBRANCH   4  13
ENDBRANCH   2   3
BRANCH   2  16
ATOM     16  O   UNL     1       6.338 -11.569  -0.627  0.00  0.00    +0.000 OA
BRANCH  16  17
ATOM     17  C   UNL     1       7.584 -11.349   0.020  0.00  0.00    +0.000 C 
ATOM     18  H   UNL     1       7.717 -12.093   0.814  0.00  0.00    +0.000 HD
ATOM     19  H   UNL     1       7.594 -10.346   0.463  0.00  0.00    +0.000 HD
BRANCH  17  20
ATOM     20  C   UNL     1       8.700 -11.476  -1.006  0.00  0.00    +0.000 C 
ATOM     21  H   UNL     1       8.268 -11.710  -1.988  0.00  0.00    +0.000 HD
ATOM     22  H   UNL     1       9.334 -12.333  -0.747  0.00  0.00    +0.000 HD
BRANCH  20  23
ATOM     23  C   UNL     1       9.539 -10.204  -1.088  0.00  0.00    +0.000 C 
ATOM     24  H   UNL     1       9.825 -10.012  -2.129  0.00  0.00    +0.000 HD
ATOM     25  H   UNL     1      10.466 -10.332  -0.517  0.00  0.00    +0.000 HD
BRANCH  23  26
ATOM     26  C   UNL     1       8.781  -9.001  -0.551  0.00  0.00    +0.000 C 
ATOM     27  H   UNL     1       8.095  -9.296   0.250  0.00  0.00    +0.000 HD
ATOM     28  H   UNL     1       9.470  -8.248  -0.155  0.00  0.00    +0.000 HD
ATOM     29  H   UNL     1       8.191  -8.538  -1.348  0.00  0.00    +0.000 HD
ENDBRANCH  23  26
ENDBRANCH  20  23
ENDBRANCH  17  20
ENDBRANCH  16  17
ENDBRANCH   2  16
TORSDOF 7
ENDMDL
MODEL 4
REMARK VINA RESULT:    -5.550      2.380      5.240
REMARK INTER + INTRA:          -8.236
REMARK INTER:                  -7.481
REMARK INTRA:                  -0.755
REMARK UNBOUND:                -0.739
REMARK  Name = 24433
REMARK  7 active torsions:
REMARK  status: ('A' for Active; 'I' for Inactive)
REMARK    1  A    between atoms: O_1  and  C_6
REMARK    2  A    between atoms: O_1  and  C_9
REMARK    3  A    between atoms: N_3  and  C_10
REMARK    4  A    between atoms: C_4  and  C_5
REMARK    5  A    between atoms: C_4  and  C_6
REMARK    6  A    between atoms: C_5  and  C_7
REMARK    7  A    between atoms: C_8  and  C_9
REMARK                            x       y       z     vdW  Elec       q    Type
REMARK                         _______ _______ _______ _____ _____    ______ ____
ROOT
ATOM      1  O   UNL     1       5.806  -4.099  -2.581  0.00  0.00    +0.000 OA
ATOM      2  C   UNL     1       6.061  -3.059  -1.993  0.00  0.00    +0.000 C 
ENDROOT
BRANCH   2   3
ATOM      3  C   UNL     1       7.446  -2.595  -1.725  0.00  0.00    +0.000 A 
ATOM      4  C   UNL     1       8.387  -2.583  -2.735  0.00  0.00    +0.000 A 
ATOM      5  C   UNL     1       7.746  -2.183  -0.441  0.00  0.00    +0.000 A 
ATOM      6  C   UNL     1       9.679  -2.142  -2.452  0.00  0.00    +0.000 A 
ATOM      7  C   UNL     1       9.039  -1.741  -0.157  0.00  0.00    +0.000 A 
ATOM      8  C   UNL     1      10.005  -1.721  -1.163  0.00  0.00    +0.000 A 
ATOM      9  H   UNL     1       7.012  -2.172   0.359  0.00  0.00    +0.000 HD
ATOM     10  H   UNL     1      10.442  -2.121  -3.227  0.00  0.00    +0.000 HD
ATOM     11  H   UNL     1       9.293  -1.410   0.845  0.00  0.00    +0.000 HD
ATOM     12  H   UNL     1      11.011  -1.376  -0.943  0.00  0.00    +0.000 HD
BRANCH   4  13
ATOM     13  N   UNL     1       8.076  -3.006  -4.047  0.00  0.00    +0.000 N 
ATOM     14  H   UNL     1       8.706  -3.603  -4.563  0.00  0.00    +0.000 HD
ATOM     15  H   UNL     1       7.219  -2.693  -4.485  0.00  0.00    +0.000 HD
ENDBRANCH   4  13
ENDBRANCH   2   3
BRANCH   2  16
ATOM     16  O   UNL     1       5.150  -2.176  -1.497  0.00  0.00    +0.000 OA
BRANCH  16  17
ATOM     17  C   UNL     1       3.815  -2.651  -1.389  0.00  0.00    +0.000 C 
ATOM     18  H   UNL     1       3.744  -3.644  -1.849  0.00  0.00    +0.000 HD
ATOM     19  H   UNL     1       3.139  -1.964  -1.912  0.00  0.00    +0.000 HD
BRANCH  17  20
ATOM     20  C   UNL     1       3.440  -2.730   0.084  0.00  0.00    +0.000 C 
ATOM     21  H   UNL     1       2.348  -2.789   0.179  0.00  0.00    +0.000 HD
ATOM     22  H   UNL     1       3.733  -1.799   0.582  0.00  0.00    +0.000 HD
BRANCH  20  23
ATOM     23  C   UNL     1       4.095  -3.926   0.769  0.00  0.00    +0.000 C 
ATOM     24  H   UNL     1       4.576  -4.567   0.020  0.00  0.00    +0.000 HD
ATOM     25  H   UNL     1       3.332  -4.532   1.270  0.00  0.00    +0.000 HD
BRANCH  23  26
ATOM     26  C   UNL     1       5.134  -3.484   1.787  0.00  0.00    +0.000 C 
ATOM     27  H   UNL     1       5.969  -4.191   1.827  0.00  0.00    +0.000 HD
ATOM     28  H   UNL     1       5.531  -2.494   1.539  0.00  0.00    +0.000 HD
ATOM     29  H   UNL     1       4.687  -3.432   2.785  0.00  0.00    +0.000 HD
ENDBRANCH  23  26
ENDBRANCH  20  23
ENDBRANCH  17  20
ENDBRANCH  16  17
ENDBRANCH   2  16
TORSDOF 7
ENDMDL
MODEL 5
REMARK VINA RESULT:    -5.434      8.786      9.621
REMARK INTER + INTRA:          -8.079
REMARK INTER:                  -7.635
REMARK INTRA:                  -0.444
REMARK UNBOUND:                -0.739
REMARK  Name = 24433
REMARK  7 active torsions:
REMARK  status: ('A' for Active; 'I' for Inactive)
REMARK    1  A    between atoms: O_1  and  C_6
REMARK    2  A    between atoms: O_1  and  C_9
REMARK    3  A    between atoms: N_3  and  C_10
REMARK    4  A    between atoms: C_4  and  C_5
REMARK    5  A    between atoms: C_4  and  C_6
REMARK    6  A    between atoms: C_5  and  C_7
REMARK    7  A    between atoms: C_8  and  C_9
REMARK                            x       y       z     vdW  Elec       q    Type
REMARK                         _______ _______ _______ _____ _____    ______ ____
ROOT
ATOM      1  O   UNL     1       4.520 -11.907  -1.024  0.00  0.00    +0.000 OA
ATOM      2  C   UNL     1       5.007 -12.121   0.076  0.00  0.00    +0.000 C 
ENDROOT
BRANCH   2   3
ATOM      3  C   UNL     1       4.209 -12.565   1.247  0.00  0.00    +0.000 A 
ATOM      4  C   UNL     1       3.198 -11.767   1.746  0.00  0.00    +0.000 A 
ATOM      5  C   UNL     1       4.517 -13.790   1.806  0.00  0.00    +0.000 A 
ATOM      6  C   UNL     1       2.465 -12.212   2.847  0.00  0.00    +0.000 A 
ATOM      7  C   UNL     1       3.785 -14.235   2.907  0.00  0.00    +0.000 A 
ATOM      8  C   UNL     1       2.759 -13.446   3.427  0.00  0.00    +0.000 A 
ATOM      9  H   UNL     1       5.298 -14.434   1.413  0.00  0.00    +0.000 HD
ATOM     10  H   UNL     1       1.664 -11.607   3.262  0.00  0.00    +0.000 HD
ATOM     11  H   UNL     1       4.010 -15.197   3.357  0.00  0.00    +0.000 HD
ATOM     12  H   UNL     1       2.189 -13.792   4.284  0.00  0.00    +0.000 HD
BRANCH   4  13
ATOM     13  N   UNL     1       2.885 -10.515   1.172  0.00  0.00    +0.000 N 
ATOM     14  H   UNL     1       3.388  -9.681   1.440  0.00  0.00    +0.000 HD
ATOM     15  H   UNL     1       2.135 -10.446   0.496  0.00  0.00    +0.000 HD
ENDBRANCH   4  13
ENDBRANCH   2   3
BRANCH   2  16
ATOM     16  O   UNL     1       6.322 -11.993   0.408  0.00  0.00    +0.000 OA
BRANCH  16  17
ATOM     17  C   UNL     1       7.135 -11.291  -0.523  0.00  0.00    +0.000 C 
ATOM     18  H   UNL     1       7.181 -10.232  -0.239  0.00  0.00    +0.000 HD
ATOM     19  H   UNL     1       6.700 -11.375  -1.526  0.00  0.00    +0.000 HD
BRANCH  17  20
ATOM     20  C   UNL     1       8.532 -11.895  -0.508  0.00  0.00    +0.000 C 
ATOM     21  H   UNL     1       8.497 -12.904  -0.940  0.00  0.00    +0.000 HD
ATOM     22  H   UNL     1       8.858 -12.026   0.531  0.00  0.00    +0.000 HD
BRANCH  20  23
ATOM     23  C   UNL     1       9.530 -11.028  -1.270  0.00  0.00    +0.000 C 
ATOM     24  H   UNL     1       9.047 -10.594  -2.153  0.00  0.00    +0.000 HD
ATOM     25  H   UNL     1      10.362 -11.645  -1.628  0.00  0.00    +0.000 HD
BRANCH  23  26
ATOM     26  C   UNL     1      10.074  -9.908  -0.398  0.00  0.00    +0.000 C 
ATOM     27  H   UNL     1      10.426 -10.295   0.563  0.00  0.00    +0.000 HD
ATOM     28  H   UNL     1      10.908  -9.397  -0.891  0.00  0.00    +0.000 HD
ATOM     29  H   UNL     1       9.291  -9.169  -0.200  0.00  0.00    +0.000 HD
ENDBRANCH  23  26
ENDBRANCH  20  23
ENDBRANCH  17  20
ENDBRANCH  16  17
ENDBRANCH   2  16
TORSDOF 7
ENDMDL
MODEL 6
REMARK VINA RESULT:    -5.344      1.487      4.745
REMARK INTER + INTRA:          -7.957
REMARK INTER:                  -7.245
REMARK INTRA:                  -0.712
REMARK UNBOUND:                -0.739
REMARK  Name = 24433
REMARK  7 active torsions:
REMARK  status: ('A' for Active; 'I' for Inactive)
REMARK    1  A    between atoms: O_1  and  C_6
REMARK    2  A    between atoms: O_1  and  C_9
REMARK    3  A    between atoms: N_3  and  C_10
REMARK    4  A    between atoms: C_4  and  C_5
REMARK    5  A    between atoms: C_4  and  C_6
REMARK    6  A    between atoms: C_5  and  C_7
REMARK    7  A    between atoms: C_8  and  C_9
REMARK                            x       y       z     vdW  Elec       q    Type
REMARK                         _______ _______ _______ _____ _____    ______ ____
ROOT
ATOM      1  O   UNL     1       6.348  -4.956  -1.045  0.00  0.00    +0.000 OA
ATOM      2  C   UNL     1       6.458  -3.837  -1.524  0.00  0.00    +0.000 C 
ENDROOT
BRANCH   2   3
ATOM      3  C   UNL     1       7.692  -3.020  -1.406  0.00  0.00    +0.000 A 
ATOM      4  C   UNL     1       8.183  -2.671  -0.163  0.00  0.00    +0.000 A 
ATOM      5  C   UNL     1       8.316  -2.629  -2.575  0.00  0.00    +0.000 A 
ATOM      6  C   UNL     1       9.344  -1.902  -0.085  0.00  0.00    +0.000 A 
ATOM      7  C   UNL     1       9.477  -1.860  -2.497  0.00  0.00    +0.000 A 
ATOM      8  C   UNL     1       9.991  -1.497  -1.252  0.00  0.00    +0.000 A 
ATOM      9  H   UNL     1       7.950  -2.910  -3.558  0.00  0.00    +0.000 HD
ATOM     10  H   UNL     1       9.755  -1.612   0.879  0.00  0.00    +0.000 HD
ATOM     11  H   UNL     1       9.984  -1.547  -3.405  0.00  0.00    +0.000 HD
ATOM     12  H   UNL     1      10.895  -0.899  -1.191  0.00  0.00    +0.000 HD
BRANCH   4  13
ATOM     13  N   UNL     1       7.542  -3.072   1.031  0.00  0.00    +0.000 N 
ATOM     14  H   UNL     1       6.963  -2.428   1.551  0.00  0.00    +0.000 HD
ATOM     15  H   UNL     1       7.676  -4.012   1.380  0.00  0.00    +0.000 HD
ENDBRANCH   4  13
ENDBRANCH   2   3
BRANCH   2  16
ATOM     16  O   UNL     1       5.500  -3.169  -2.224  0.00  0.00    +0.000 OA
BRANCH  16  17
ATOM     17  C   UNL     1       4.753  -2.203  -1.497  0.00  0.00    +0.000 C 
ATOM     18  H   UNL     1       4.406  -1.421  -2.183  0.00  0.00    +0.000 HD
ATOM     19  H   UNL     1       5.391  -1.750  -0.729  0.00  0.00    +0.000 HD
BRANCH  17  20
ATOM     20  C   UNL     1       3.563  -2.891  -0.845  0.00  0.00    +0.000 C 
ATOM     21  H   UNL     1       3.529  -3.941  -1.164  0.00  0.00    +0.000 HD
ATOM     22  H   UNL     1       2.636  -2.436  -1.214  0.00  0.00    +0.000 HD
BRANCH  20  23
ATOM     23  C   UNL     1       3.625  -2.803   0.677  0.00  0.00    +0.000 C 
ATOM     24  H   UNL     1       2.629  -2.576   1.078  0.00  0.00    +0.000 HD
ATOM     25  H   UNL     1       4.288  -1.982   0.976  0.00  0.00    +0.000 HD
BRANCH  23  26
ATOM     26  C   UNL     1       4.124  -4.100   1.291  0.00  0.00    +0.000 C 
ATOM     27  H   UNL     1       3.368  -4.540   1.949  0.00  0.00    +0.000 HD
ATOM     28  H   UNL     1       4.373  -4.832   0.514  0.00  0.00    +0.000 HD
ATOM     29  H   UNL     1       5.025  -3.916   1.886  0.00  0.00    +0.000 HD
ENDBRANCH  23  26
ENDBRANCH  20  23
ENDBRANCH  17  20
ENDBRANCH  16  17
ENDBRANCH   2  16
TORSDOF 7
ENDMDL
MODEL 7
REMARK VINA RESULT:    -5.262      8.721     10.597
REMARK INTER + INTRA:          -7.846
REMARK INTER:                  -7.313
REMARK INTRA:                  -0.533
REMARK UNBOUND:                -0.739
REMARK  Name = 24433
REMARK  7 active torsions:
REMARK  status: ('A' for Active; 'I' for Inactive)
REMARK    1  A    between atoms: O_1  and  C_6
REMARK    2  A    between atoms: O_1  and  C_9
REMARK    3  A    between atoms: N_3  and  C_10
REMARK    4  A    between atoms: C_4  and  C_5
REMARK    5  A    between atoms: C_4  and  C_6
REMARK    6  A    between atoms: C_5  and  C_7
REMARK    7  A    between atoms: C_8  and  C_9
REMARK                            x       y       z     vdW  Elec       q    Type
REMARK                         _______ _______ _______ _____ _____    ______ ____
ROOT
ATOM      1  O   UNL     1       6.611 -12.110   2.048  0.00  0.00    +0.000 OA
ATOM      2  C   UNL     1       6.369 -12.073   0.851  0.00  0.00    +0.000 C 
ENDROOT
BRANCH   2   3
ATOM      3  C   UNL     1       7.420 -12.151  -0.195  0.00  0.00    +0.000 A 
ATOM      4  C   UNL     1       8.306 -11.106  -0.374  0.00  0.00    +0.000 A 
ATOM      5  C   UNL     1       7.471 -13.294  -0.968  0.00  0.00    +0.000 A 
ATOM      6  C   UNL     1       9.282 -11.209  -1.365  0.00  0.00    +0.000 A 
ATOM      7  C   UNL     1       8.448 -13.397  -1.960  0.00  0.00    +0.000 A 
ATOM      8  C   UNL     1       9.353 -12.355  -2.158  0.00  0.00    +0.000 A 
ATOM      9  H   UNL     1       6.791 -14.129  -0.828  0.00  0.00    +0.000 HD
ATOM     10  H   UNL     1       9.994 -10.404  -1.530  0.00  0.00    +0.000 HD
ATOM     11  H   UNL     1       8.506 -14.290  -2.575  0.00  0.00    +0.000 HD
ATOM     12  H   UNL     1      10.113 -12.435  -2.929  0.00  0.00    +0.000 HD
BRANCH   4  13
ATOM     13  N   UNL     1       8.251  -9.938   0.418  0.00  0.00    +0.000 N 
ATOM     14  H   UNL     1       8.911  -9.787   1.168  0.00  0.00    +0.000 HD
ATOM     15  H   UNL     1       7.531  -9.249   0.246  0.00  0.00    +0.000 HD
ENDBRANCH   4  13
ENDBRANCH   2   3
BRANCH   2  16
ATOM     16  O   UNL     1       5.134 -11.956   0.288  0.00  0.00    +0.000 OA
BRANCH  16  17
ATOM     17  C   UNL     1       4.077 -12.635   0.954  0.00  0.00    +0.000 C 
ATOM     18  H   UNL     1       4.498 -13.308   1.711  0.00  0.00    +0.000 HD
ATOM     19  H   UNL     1       3.506 -13.224   0.227  0.00  0.00    +0.000 HD
BRANCH  17  20
ATOM     20  C   UNL     1       3.173 -11.606   1.616  0.00  0.00    +0.000 C 
ATOM     21  H   UNL     1       2.386 -11.306   0.912  0.00  0.00    +0.000 HD
ATOM     22  H   UNL     1       3.750 -10.697   1.824  0.00  0.00    +0.000 HD
BRANCH  20  23
ATOM     23  C   UNL     1       2.554 -12.144   2.903  0.00  0.00    +0.000 C 
ATOM     24  H   UNL     1       1.480 -12.310   2.758  0.00  0.00    +0.000 HD
ATOM     25  H   UNL     1       2.661 -11.405   3.705  0.00  0.00    +0.000 HD
BRANCH  23  26
ATOM     26  C   UNL     1       3.206 -13.448   3.331  0.00  0.00    +0.000 C 
ATOM     27  H   UNL     1       4.103 -13.260   3.931  0.00  0.00    +0.000 HD
ATOM     28  H   UNL     1       2.516 -14.056   3.925  0.00  0.00    +0.000 HD
ATOM     29  H   UNL     1       3.502 -14.030   2.453  0.00  0.00    +0.000 HD
ENDBRANCH  23  26
ENDBRANCH  20  23
ENDBRANCH  17  20
ENDBRANCH  16  17
ENDBRANCH   2  16
TORSDOF 7
ENDMDL
MODEL 8
REMARK VINA RESULT:    -4.927     15.755     17.144
REMARK INTER + INTRA:          -7.394
REMARK INTER:                  -6.283
REMARK INTRA:                  -1.111
REMARK UNBOUND:                -0.739
REMARK  Name = 24433
REMARK  7 active torsions:
REMARK  status: ('A' for Active; 'I' for Inactive)
REMARK    1  A    between atoms: O_1  and  C_6
REMARK    2  A    between atoms: O_1  and  C_9
REMARK    3  A    between atoms: N_3  and  C_10
REMARK    4  A    between atoms: C_4  and  C_5
REMARK    5  A    between atoms: C_4  and  C_6
REMARK    6  A    between atoms: C_5  and  C_7
REMARK    7  A    between atoms: C_8  and  C_9
REMARK                            x       y       z     vdW  Elec       q    Type
REMARK                         _______ _______ _______ _____ _____    ______ ____
ROOT
ATOM      1  O   UNL     1       2.442  -7.871  13.018  0.00  0.00    +0.000 OA
ATOM      2  C   UNL     1       2.607  -7.595  14.196  0.00  0.00    +0.000 C 
ENDROOT
BRANCH   2   3
ATOM      3  C   UNL     1       1.544  -7.012  15.053  0.00  0.00    +0.000 A 
ATOM      4  C   UNL     1       1.220  -5.673  14.950  0.00  0.00    +0.000 A 
ATOM      5  C   UNL     1       0.903  -7.853  15.942  0.00  0.00    +0.000 A 
ATOM      6  C   UNL     1       0.216  -5.154  15.768  0.00  0.00    +0.000 A 
ATOM      7  C   UNL     1      -0.101  -7.334  16.760  0.00  0.00    +0.000 A 
ATOM      8  C   UNL     1      -0.444  -5.985  16.673  0.00  0.00    +0.000 A 
ATOM      9  H   UNL     1       1.137  -8.911  16.021  0.00  0.00    +0.000 HD
ATOM     10  H   UNL     1      -0.061  -4.105  15.710  0.00  0.00    +0.000 HD
ATOM     11  H   UNL     1      -0.618  -7.981  17.463  0.00  0.00    +0.000 HD
ATOM     12  H   UNL     1      -1.226  -5.582  17.309  0.00  0.00    +0.000 HD
BRANCH   4  13
ATOM     13  N   UNL     1       1.877  -4.815  14.039  0.00  0.00    +0.000 N 
ATOM     14  H   UNL     1       1.410  -4.003  13.663  0.00  0.00    +0.000 HD
ATOM     15  H   UNL     1       2.822  -5.025  13.746  0.00  0.00    +0.000 HD
ENDBRANCH   4  13
ENDBRANCH   2   3
BRANCH   2  16
ATOM     16  O   UNL     1       3.758  -7.768  14.904  0.00  0.00    +0.000 OA
BRANCH  16  17
ATOM     17  C   UNL     1       4.830  -6.894  14.578  0.00  0.00    +0.000 C 
ATOM     18  H   UNL     1       4.535  -6.256  13.735  0.00  0.00    +0.000 HD
ATOM     19  H   UNL     1       5.709  -7.483  14.292  0.00  0.00    +0.000 HD
BRANCH  17  20
ATOM     20  C   UNL     1       5.151  -6.035  15.793  0.00  0.00    +0.000 C 
ATOM     21  H   UNL     1       4.797  -5.011  15.619  0.00  0.00    +0.000 HD
ATOM     22  H   UNL     1       6.239  -5.960  15.906  0.00  0.00    +0.000 HD
BRANCH  20  23
ATOM     23  C   UNL     1       4.526  -6.601  17.065  0.00  0.00    +0.000 C 
ATOM     24  H   UNL     1       5.314  -6.926  17.754  0.00  0.00    +0.000 HD
ATOM     25  H   UNL     1       3.924  -7.485  16.822  0.00  0.00    +0.000 HD
BRANCH  23  26
ATOM     26  C   UNL     1       3.649  -5.573  17.761  0.00  0.00    +0.000 C 
ATOM     27  H   UNL     1       3.956  -5.437  18.803  0.00  0.00    +0.000 HD
ATOM     28  H   UNL     1       3.705  -4.604  17.255  0.00  0.00    +0.000 HD
ATOM     29  H   UNL     1       2.605  -5.901  17.756  0.00  0.00    +0.000 HD
ENDBRANCH  23  26
ENDBRANCH  20  23
ENDBRANCH  17  20
ENDBRANCH  16  17
ENDBRANCH   2  16
TORSDOF 7
ENDMDL
MODEL 9
REMARK VINA RESULT:    -4.777     15.621     16.913
REMARK INTER + INTRA:          -7.192
REMARK INTER:                  -6.769
REMARK INTRA:                  -0.423
REMARK UNBOUND:                -0.739
REMARK  Name = 24433
REMARK  7 active torsions:
REMARK  status: ('A' for Active; 'I' for Inactive)
REMARK    1  A    between atoms: O_1  and  C_6
REMARK    2  A    between atoms: O_1  and  C_9
REMARK    3  A    between atoms: N_3  and  C_10
REMARK    4  A    between atoms: C_4  and  C_5
REMARK    5  A    between atoms: C_4  and  C_6
REMARK    6  A    between atoms: C_5  and  C_7
REMARK    7  A    between atoms: C_8  and  C_9
REMARK                            x       y       z     vdW  Elec       q    Type
REMARK                         _______ _______ _______ _____ _____    ______ ____
ROOT
ATOM      1  O   UNL     1       6.211  14.589  -3.218  0.00  0.00    +0.000 OA
ATOM      2  C   UNL     1       6.947  13.627  -3.064  0.00  0.00    +0.000 C 
ENDROOT
BRANCH   2   3
ATOM      3  C   UNL     1       7.941  13.192  -4.077  0.00  0.00    +0.000 A 
ATOM      4  C   UNL     1       7.557  12.981  -5.387  0.00  0.00    +0.000 A 
ATOM      5  C   UNL     1       9.245  13.010  -3.659  0.00  0.00    +0.000 A 
ATOM      6  C   UNL     1       8.514  12.572  -6.316  0.00  0.00    +0.000 A 
ATOM      7  C   UNL     1      10.202  12.602  -4.588  0.00  0.00    +0.000 A 
ATOM      8  C   UNL     1       9.837  12.383  -5.916  0.00  0.00    +0.000 A 
ATOM      9  H   UNL     1       9.564  13.188  -2.636  0.00  0.00    +0.000 HD
ATOM     10  H   UNL     1       8.242  12.398  -7.354  0.00  0.00    +0.000 HD
ATOM     11  H   UNL     1      11.234  12.458  -4.279  0.00  0.00    +0.000 HD
ATOM     12  H   UNL     1      10.582  12.066  -6.639  0.00  0.00    +0.000 HD
BRANCH   4  13
ATOM     13  N   UNL     1       6.222  13.167  -5.811  0.00  0.00    +0.000 N 
ATOM     14  H   UNL     1       5.569  13.697  -5.252  0.00  0.00    +0.000 HD
ATOM     15  H   UNL     1       5.909  12.751  -6.679  0.00  0.00    +0.000 HD
ENDBRANCH   4  13
ENDBRANCH   2   3
BRANCH   2  16
ATOM     16  O   UNL     1       6.981  12.813  -1.972  0.00  0.00    +0.000 OA
BRANCH  16  17
ATOM     17  C   UNL     1       6.056  13.117  -0.937  0.00  0.00    +0.000 C 
ATOM     18  H   UNL     1       5.035  13.069  -1.335  0.00  0.00    +0.000 HD
ATOM     19  H   UNL     1       6.247  14.129  -0.561  0.00  0.00    +0.000 HD
BRANCH  17  20
ATOM     20  C   UNL     1       6.225  12.104   0.186  0.00  0.00    +0.000 C 
ATOM     21  H   UNL     1       7.050  11.423  -0.058  0.00  0.00    +0.000 HD
ATOM     22  H   UNL     1       5.327  11.477   0.245  0.00  0.00    +0.000 HD
BRANCH  20  23
ATOM     23  C   UNL     1       6.482  12.785   1.527  0.00  0.00    +0.000 C 
ATOM     24  H   UNL     1       6.215  13.847   1.462  0.00  0.00    +0.000 HD
ATOM     25  H   UNL     1       7.550  12.735   1.772  0.00  0.00    +0.000 HD
BRANCH  23  26
ATOM     26  C   UNL     1       5.681  12.138   2.644  0.00  0.00    +0.000 C 
ATOM     27  H   UNL     1       5.340  11.139   2.354  0.00  0.00    +0.000 HD
ATOM     28  H   UNL     1       6.280  12.047   3.556  0.00  0.00    +0.000 HD
ATOM     29  H   UNL     1       4.798  12.742   2.876  0.00  0.00    +0.000 HD
ENDBRANCH  23  26
ENDBRANCH  20  23
ENDBRANCH  17  20
ENDBRANCH  16  17
ENDBRANCH   2  16
TORSDOF 7
ENDMDL
MODEL 10
REMARK VINA RESULT:    -4.751     16.678     18.025
REMARK INTER + INTRA:          -7.157
REMARK INTER:                  -6.418
REMARK INTRA:                  -0.739
REMARK UNBOUND:                -0.739
REMARK  Name = 24433
REMARK  7 active torsions:
REMARK  status: ('A' for Active; 'I' for Inactive)
REMARK    1  A    between atoms: O_1  and  C_6
REMARK    2  A    between atoms: O_1  and  C_9
REMARK    3  A    between atoms: N_3  and  C_10
REMARK    4  A    between atoms: C_4  and  C_5
REMARK    5  A    between atoms: C_4  and  C_6
REMARK    6  A    between atoms: C_5  and  C_7
REMARK    7  A    between atoms: C_8  and  C_9
REMARK                            x       y       z     vdW  Elec       q    Type
REMARK                         _______ _______ _______ _____ _____    ______ ____
ROOT
ATOM      1  O   UNL     1       5.700  12.821  -6.563  0.00  0.00    +0.000 OA
ATOM      2  C   UNL     1       6.558  13.623  -6.228  0.00  0.00    +0.000 C 
ENDROOT
BRANCH   2   3
ATOM      3  C   UNL     1       7.754  13.928  -7.053  0.00  0.00    +0.000 A 
ATOM      4  C   UNL     1       8.820  13.050  -7.088  0.00  0.00    +0.000 A 
ATOM      5  C   UNL     1       7.754  15.108  -7.771  0.00  0.00    +0.000 A 
ATOM      6  C   UNL     1       9.930  13.364  -7.873  0.00  0.00    +0.000 A 
ATOM      7  C   UNL     1       8.864  15.422  -8.556  0.00  0.00    +0.000 A 
ATOM      8  C   UNL     1       9.952  14.550  -8.606  0.00  0.00    +0.000 A 
ATOM      9  H   UNL     1       6.917  15.799  -7.765  0.00  0.00    +0.000 HD
ATOM     10  H   UNL     1      10.784  12.694  -7.920  0.00  0.00    +0.000 HD
ATOM     11  H   UNL     1       8.881  16.343  -9.130  0.00  0.00    +0.000 HD
ATOM     12  H   UNL     1      10.816  14.794  -9.217  0.00  0.00    +0.000 HD
BRANCH   4  13
ATOM     13  N   UNL     1       8.817  11.844  -6.352  0.00  0.00    +0.000 N 
ATOM     14  H   UNL     1       9.552  11.161  -6.471  0.00  0.00    +0.000 HD
ATOM     15  H   UNL     1       8.061  11.652  -5.708  0.00  0.00    +0.000 HD
ENDBRANCH   4  13
ENDBRANCH   2   3
BRANCH   2  16
ATOM     16  O   UNL     1       6.565  14.352  -5.077  0.00  0.00    +0.000 OA
BRANCH  16  17
ATOM     17  C   UNL     1       6.909  13.647  -3.893  0.00  0.00    +0.000 C 
ATOM     18  H   UNL     1       7.036  12.583  -4.127  0.00  0.00    +0.000 HD
ATOM     19  H   UNL     1       6.106  13.758  -3.154  0.00  0.00    +0.000 HD
BRANCH  17  20
ATOM     20  C   UNL     1       8.207  14.218  -3.341  0.00  0.00    +0.000 C 
ATOM     21  H   UNL     1       8.007  14.720  -2.386  0.00  0.00    +0.000 HD
ATOM     22  H   UNL     1       8.576  14.998  -4.018  0.00  0.00    +0.000 HD
BRANCH  20  23
ATOM     23  C   UNL     1       9.266  13.134  -3.156  0.00  0.00    +0.000 C 
ATOM     24  H   UNL     1      10.054  13.495  -2.484  0.00  0.00    +0.000 HD
ATOM     25  H   UNL     1       9.740  12.909  -4.119  0.00  0.00    +0.000 HD
BRANCH  23  26
ATOM     26  C   UNL     1       8.666  11.861  -2.582  0.00  0.00    +0.000 C 
ATOM     27  H   UNL     1       9.450  11.154  -2.294  0.00  0.00    +0.000 HD
ATOM     28  H   UNL     1       8.056  12.078  -1.700  0.00  0.00    +0.000 HD
ATOM     29  H   UNL     1       8.028  11.375  -3.327  0.00  0.00    +0.000 HD
ENDBRANCH  23  26
ENDBRANCH  20  23
ENDBRANCH  17  20
ENDBRANCH  16  17
ENDBRANCH   2  16
TORSDOF 7
ENDMDL
