MODEL 1
REMARK VINA RESULT:    -3.441      0.000      0.000
REMARK INTER + INTRA:          -4.061
REMARK INTER:                  -4.021
REMARK INTRA:                  -0.040
REMARK UNBOUND:                -0.017
REMARK  Name = 264
REMARK  4 active torsions:
REMARK  status: ('A' for Active; 'I' for Inactive)
REMARK    1  A    between atoms: O_1  and  C_6
REMARK    2  A    between atoms: C_3  and  C_4
REMARK    3  A    between atoms: C_3  and  C_5
REMARK    4  A    between atoms: C_4  and  C_6
REMARK                            x       y       z     vdW  Elec       q    Type
REMARK                         _______ _______ _______ _____ _____    ______ ____
ROOT
ATOM      1  C   UNL     1      10.459 -10.433  -1.785  0.00  0.00    +0.000 C 
ATOM      2  H   UNL     1       9.667 -10.455  -2.543  0.00  0.00    +0.000 HD
ATOM      3  H   UNL     1      10.958 -11.409  -1.826  0.00  0.00    +0.000 HD
ENDROOT
BRANCH   1   4
ATOM      4  C   UNL     1      11.466  -9.352  -2.153  0.00  0.00    +0.000 C 
ATOM      5  H   UNL     1      12.248  -9.754  -2.805  0.00  0.00    +0.000 HD
ATOM      6  H   UNL     1      11.942  -8.941  -1.258  0.00  0.00    +0.000 HD
ATOM      7  H   UNL     1      10.968  -8.533  -2.681  0.00  0.00    +0.000 HD
ENDBRANCH   1   4
BRANCH   1   8
ATOM      8  C   UNL     1       9.847 -10.224  -0.405  0.00  0.00    +0.000 C 
ATOM      9  H   UNL     1       9.662 -11.191   0.074  0.00  0.00    +0.000 HD
ATOM     10  H   UNL     1      10.534  -9.643   0.219  0.00  0.00    +0.000 HD
BRANCH   8  12
ATOM     11  O   UNL     1       8.446  -8.263  -0.561  0.00  0.00    +0.000 OA
ATOM     12  C   UNL     1       8.536  -9.482  -0.481  0.00  0.00    +0.000 C 
BRANCH  12  13
ATOM     13  O   UNL     1       7.461 -10.308  -0.478  0.00  0.00    +0.000 OA
ATOM     14  H   UNL     1       7.723 -11.250  -0.398  0.00  0.00    +0.000 HD
ENDBRANCH  12  13
ENDBRANCH   8  12
ENDBRANCH   1   8
TORSDOF 4
ENDMDL
MODEL 2
REMARK VINA RESULT:    -3.340      7.059      8.282
REMARK INTER + INTRA:          -3.942
REMARK INTER:                  -3.936
REMARK INTRA:                  -0.006
REMARK UNBOUND:                -0.017
REMARK  Name = 264
REMARK  4 active torsions:
REMARK  status: ('A' for Active; 'I' for Inactive)
REMARK    1  A    between atoms: O_1  and  C_6
REMARK    2  A    between atoms: C_3  and  C_4
REMARK    3  A    between atoms: C_3  and  C_5
REMARK    4  A    between atoms: C_4  and  C_6
REMARK                            x       y       z     vdW  Elec       q    Type
REMARK                         _______ _______ _______ _____ _____    ______ ____
ROOT
ATOM      1  C   UNL     1       4.179  -2.762  -0.825  0.00  0.00    +0.000 C 
ATOM      2  H   UNL     1       4.762  -2.106  -0.167  0.00  0.00    +0.000 HD
ATOM      3  H   UNL     1       4.042  -3.705  -0.283  0.00  0.00    +0.000 HD
ENDROOT
BRANCH   1   4
ATOM      4  C   UNL     1       2.814  -2.132  -1.066  0.00  0.00    +0.000 C 
ATOM      5  H   UNL     1       2.194  -2.189  -0.166  0.00  0.00    +0.000 HD
ATOM      6  H   UNL     1       2.287  -2.641  -1.879  0.00  0.00    +0.000 HD
ATOM      7  H   UNL     1       2.925  -1.078  -1.339  0.00  0.00    +0.000 HD
ENDBRANCH   1   4
BRANCH   1   8
ATOM      8  C   UNL     1       4.948  -3.015  -2.116  0.00  0.00    +0.000 C 
ATOM      9  H   UNL     1       4.406  -3.731  -2.742  0.00  0.00    +0.000 HD
ATOM     10  H   UNL     1       5.063  -2.075  -2.667  0.00  0.00    +0.000 HD
BRANCH   8  12
ATOM     11  O   UNL     1       7.361  -2.947  -2.022  0.00  0.00    +0.000 OA
ATOM     12  C   UNL     1       6.323  -3.575  -1.849  0.00  0.00    +0.000 C 
BRANCH  12  13
ATOM     13  O   UNL     1       6.292  -4.843  -1.369  0.00  0.00    +0.000 OA
ATOM     14  H   UNL     1       7.188  -5.240  -1.325  0.00  0.00    +0.000 HD
ENDBRANCH  12  13
ENDBRANCH   8  12
ENDBRANCH   1   8
TORSDOF 4
ENDMDL
MODEL 3
REMARK VINA RESULT:    -3.279      6.961      7.932
REMARK INTER + INTRA:          -3.871
REMARK INTER:                  -3.854
REMARK INTRA:                  -0.017
REMARK UNBOUND:                -0.017
REMARK  Name = 264
REMARK  4 active torsions:
REMARK  status: ('A' for Active; 'I' for Inactive)
REMARK    1  A    between atoms: O_1  and  C_6
REMARK    2  A    between atoms: C_3  and  C_4
REMARK    3  A    between atoms: C_3  and  C_5
REMARK    4  A    between atoms: C_4  and  C_6
REMARK                            x       y       z     vdW  Elec       q    Type
REMARK                         _______ _______ _______ _____ _____    ______ ____
ROOT
ATOM      1  C   UNL     1       3.432 -13.042   3.135  0.00  0.00    +0.000 C 
ATOM      2  H   UNL     1       3.832 -12.547   4.028  0.00  0.00    +0.000 HD
ATOM      3  H   UNL     1       4.286 -13.227   2.472  0.00  0.00    +0.000 HD
ENDROOT
BRANCH   1   4
ATOM      4  C   UNL     1       2.827 -14.380   3.539  0.00  0.00    +0.000 C 
ATOM      5  H   UNL     1       2.175 -14.265   4.410  0.00  0.00    +0.000 HD
ATOM      6  H   UNL     1       3.610 -15.102   3.790  0.00  0.00    +0.000 HD
ATOM      7  H   UNL     1       2.233 -14.792   2.718  0.00  0.00    +0.000 HD
ENDBRANCH   1   4
BRANCH   1   8
ATOM      8  C   UNL     1       2.429 -12.126   2.443  0.00  0.00    +0.000 C 
ATOM      9  H   UNL     1       1.606 -12.718   2.028  0.00  0.00    +0.000 HD
ATOM     10  H   UNL     1       2.025 -11.410   3.165  0.00  0.00    +0.000 HD
BRANCH   8  12
ATOM     11  O   UNL     1       3.810 -11.849   0.481  0.00  0.00    +0.000 OA
ATOM     12  C   UNL     1       3.064 -11.352   1.315  0.00  0.00    +0.000 C 
BRANCH  12  13
ATOM     13  O   UNL     1       2.700 -10.046   1.302  0.00  0.00    +0.000 OA
ATOM     14  H   UNL     1       1.805  -9.910   1.679  0.00  0.00    +0.000 HD
ENDBRANCH  12  13
ENDBRANCH   8  12
ENDBRANCH   1   8
TORSDOF 4
ENDMDL
MODEL 4
REMARK VINA RESULT:    -3.254     18.615     19.071
REMARK INTER + INTRA:          -3.841
REMARK INTER:                  -3.823
REMARK INTRA:                  -0.018
REMARK UNBOUND:                -0.017
REMARK  Name = 264
REMARK  4 active torsions:
REMARK  status: ('A' for Active; 'I' for Inactive)
REMARK    1  A    between atoms: O_1  and  C_6
REMARK    2  A    between atoms: C_3  and  C_4
REMARK    3  A    between atoms: C_3  and  C_5
REMARK    4  A    between atoms: C_4  and  C_6
REMARK                            x       y       z     vdW  Elec       q    Type
REMARK                         _______ _______ _______ _____ _____    ______ ____
ROOT
ATOM      1  C   UNL     1       1.352  -4.055  15.093  0.00  0.00    +0.000 C 
ATOM      2  H   UNL     1       0.614  -3.330  14.729  0.00  0.00    +0.000 HD
ATOM      3  H   UNL     1       1.731  -4.583  14.210  0.00  0.00    +0.000 HD
ENDROOT
BRANCH   1   4
ATOM      4  C   UNL     1       2.504  -3.303  15.745  0.00  0.00    +0.000 C 
ATOM      5  H   UNL     1       2.131  -2.567  16.465  0.00  0.00    +0.000 HD
ATOM      6  H   UNL     1       3.101  -2.776  14.994  0.00  0.00    +0.000 HD
ATOM      7  H   UNL     1       3.160  -3.999  16.277  0.00  0.00    +0.000 HD
ENDBRANCH   1   4
BRANCH   1   8
ATOM      8  C   UNL     1       0.682  -5.044  16.039  0.00  0.00    +0.000 C 
ATOM      9  H   UNL     1       1.349  -5.271  16.877  0.00  0.00    +0.000 HD
ATOM     10  H   UNL     1      -0.246  -4.611  16.428  0.00  0.00    +0.000 HD
BRANCH   8  12
ATOM     11  O   UNL     1       1.148  -7.000  14.700  0.00  0.00    +0.000 OA
ATOM     12  C   UNL     1       0.343  -6.340  15.346  0.00  0.00    +0.000 C 
BRANCH  12  13
ATOM     13  O   UNL     1      -0.946  -6.717  15.534  0.00  0.00    +0.000 OA
ATOM     14  H   UNL     1      -1.015  -7.526  16.085  0.00  0.00    +0.000 HD
ENDBRANCH  12  13
ENDBRANCH   8  12
ENDBRANCH   1   8
TORSDOF 4
ENDMDL
MODEL 5
REMARK VINA RESULT:    -3.216     18.743     19.465
REMARK INTER + INTRA:          -3.797
REMARK INTER:                  -3.793
REMARK INTRA:                  -0.004
REMARK UNBOUND:                -0.017
REMARK  Name = 264
REMARK  4 active torsions:
REMARK  status: ('A' for Active; 'I' for Inactive)
REMARK    1  A    between atoms: O_1  and  C_6
REMARK    2  A    between atoms: C_3  and  C_4
REMARK    3  A    between atoms: C_3  and  C_5
REMARK    4  A    between atoms: C_4  and  C_6
REMARK                            x       y       z     vdW  Elec       q    Type
REMARK                         _______ _______ _______ _____ _____    ______ ____
ROOT
ATOM      1  C   UNL     1       0.713  -6.528  16.235  0.00  0.00    +0.000 C 
ATOM      2  H   UNL     1       1.246  -7.366  16.702  0.00  0.00    +0.000 HD
ATOM      3  H   UNL     1       0.604  -6.781  15.174  0.00  0.00    +0.000 HD
ENDROOT
BRANCH   1   4
ATOM      4  C   UNL     1      -0.671  -6.414  16.857  0.00  0.00    +0.000 C 
ATOM      5  H   UNL     1      -0.966  -5.366  16.965  0.00  0.00    +0.000 HD
ATOM      6  H   UNL     1      -0.694  -6.881  17.847  0.00  0.00    +0.000 HD
ATOM      7  H   UNL     1      -1.413  -6.915  16.227  0.00  0.00    +0.000 HD
ENDBRANCH   1   4
BRANCH   1   8
ATOM      8  C   UNL     1       1.532  -5.251  16.380  0.00  0.00    +0.000 C 
ATOM      9  H   UNL     1       1.296  -4.760  17.330  0.00  0.00    +0.000 HD
ATOM     10  H   UNL     1       2.600  -5.493  16.360  0.00  0.00    +0.000 HD
BRANCH   8  12
ATOM     11  O   UNL     1       1.493  -3.076  15.330  0.00  0.00    +0.000 OA
ATOM     12  C   UNL     1       1.249  -4.275  15.265  0.00  0.00    +0.000 C 
BRANCH  12  13
ATOM     13  O   UNL     1       0.718  -4.867  14.167  0.00  0.00    +0.000 OA
ATOM     14  H   UNL     1       0.425  -4.209  13.501  0.00  0.00    +0.000 HD
ENDBRANCH  12  13
ENDBRANCH   8  12
ENDBRANCH   1   8
TORSDOF 4
ENDMDL
MODEL 6
REMARK VINA RESULT:    -3.206     29.266     30.336
REMARK INTER + INTRA:          -3.785
REMARK INTER:                  -3.728
REMARK INTRA:                  -0.057
REMARK UNBOUND:                -0.017
REMARK  Name = 264
REMARK  4 active torsions:
REMARK  status: ('A' for Active; 'I' for Inactive)
REMARK    1  A    between atoms: O_1  and  C_6
REMARK    2  A    between atoms: C_3  and  C_4
REMARK    3  A    between atoms: C_3  and  C_5
REMARK    4  A    between atoms: C_4  and  C_6
REMARK                            x       y       z     vdW  Elec       q    Type
REMARK                         _______ _______ _______ _____ _____    ______ ____
ROOT
ATOM      1  C   UNL     1     -13.248   8.698  -2.622  0.00  0.00    +0.000 C 
ATOM      2  H   UNL     1     -12.418   9.237  -3.093  0.00  0.00    +0.000 HD
ATOM      3  H   UNL     1     -13.570   7.933  -3.338  0.00  0.00    +0.000 HD
ENDROOT
BRANCH   1   4
ATOM      4  C   UNL     1     -12.739   8.007  -1.364  0.00  0.00    +0.000 C 
ATOM      5  H   UNL     1     -12.416   6.985  -1.585  0.00  0.00    +0.000 HD
ATOM      6  H   UNL     1     -13.520   7.963  -0.599  0.00  0.00    +0.000 HD
ATOM      7  H   UNL     1     -11.886   8.553  -0.950  0.00  0.00    +0.000 HD
ENDBRANCH   1   4
BRANCH   1   8
ATOM      8  C   UNL     1     -14.396   9.660  -2.342  0.00  0.00    +0.000 C 
ATOM      9  H   UNL     1     -14.864   9.969  -3.283  0.00  0.00    +0.000 HD
ATOM     10  H   UNL     1     -15.147   9.167  -1.715  0.00  0.00    +0.000 HD
BRANCH   8  12
ATOM     11  O   UNL     1     -14.482  11.373  -0.642  0.00  0.00    +0.000 OA
ATOM     12  C   UNL     1     -13.925  10.901  -1.625  0.00  0.00    +0.000 C 
BRANCH  12  13
ATOM     13  O   UNL     1     -12.801  11.429  -2.168  0.00  0.00    +0.000 OA
ATOM     14  H   UNL     1     -12.244  10.744  -2.597  0.00  0.00    +0.000 HD
ENDBRANCH  12  13
ENDBRANCH   8  12
ENDBRANCH   1   8
TORSDOF 4
ENDMDL
MODEL 7
REMARK VINA RESULT:    -3.133     21.250     22.419
REMARK INTER + INTRA:          -3.700
REMARK INTER:                  -3.658
REMARK INTRA:                  -0.042
REMARK UNBOUND:                -0.017
REMARK  Name = 264
REMARK  4 active torsions:
REMARK  status: ('A' for Active; 'I' for Inactive)
REMARK    1  A    between atoms: O_1  and  C_6
REMARK    2  A    between atoms: C_3  and  C_4
REMARK    3  A    between atoms: C_3  and  C_5
REMARK    4  A    between atoms: C_4  and  C_6
REMARK                            x       y       z     vdW  Elec       q    Type
REMARK                         _______ _______ _______ _____ _____    ______ ____
ROOT
ATOM      1  C   UNL     1      -4.171 -13.247  18.078  0.00  0.00    +0.000 C 
ATOM      2  H   UNL     1      -4.573 -13.558  17.106  0.00  0.00    +0.000 HD
ATOM      3  H   UNL     1      -4.954 -12.653  18.564  0.00  0.00    +0.000 HD
ENDROOT
BRANCH   1   4
ATOM      4  C   UNL     1      -3.904 -14.487  18.921  0.00  0.00    +0.000 C 
ATOM      5  H   UNL     1      -4.035 -15.397  18.328  0.00  0.00    +0.000 HD
ATOM      6  H   UNL     1      -4.586 -14.532  19.775  0.00  0.00    +0.000 HD
ATOM      7  H   UNL     1      -2.878 -14.472  19.303  0.00  0.00    +0.000 HD
ENDBRANCH   1   4
BRANCH   1   8
ATOM      8  C   UNL     1      -2.926 -12.393  17.873  0.00  0.00    +0.000 C 
ATOM      9  H   UNL     1      -3.193 -11.331  17.893  0.00  0.00    +0.000 HD
ATOM     10  H   UNL     1      -2.205 -12.595  18.671  0.00  0.00    +0.000 HD
BRANCH   8  12
ATOM     11  O   UNL     1      -1.049 -12.633  16.372  0.00  0.00    +0.000 OA
ATOM     12  C   UNL     1      -2.260 -12.682  16.551  0.00  0.00    +0.000 C 
BRANCH  12  13
ATOM     13  O   UNL     1      -3.141 -13.031  15.581  0.00  0.00    +0.000 OA
ATOM     14  H   UNL     1      -3.718 -13.774  15.859  0.00  0.00    +0.000 HD
ENDBRANCH  12  13
ENDBRANCH   8  12
ENDBRANCH   1   8
TORSDOF 4
ENDMDL
MODEL 8
REMARK VINA RESULT:    -3.119      5.682      7.008
REMARK INTER + INTRA:          -3.682
REMARK INTER:                  -3.673
REMARK INTRA:                  -0.009
REMARK UNBOUND:                -0.017
REMARK  Name = 264
REMARK  4 active torsions:
REMARK  status: ('A' for Active; 'I' for Inactive)
REMARK    1  A    between atoms: O_1  and  C_6
REMARK    2  A    between atoms: C_3  and  C_4
REMARK    3  A    between atoms: C_3  and  C_5
REMARK    4  A    between atoms: C_4  and  C_6
REMARK                            x       y       z     vdW  Elec       q    Type
REMARK                         _______ _______ _______ _____ _____    ______ ____
ROOT
ATOM      1  C   UNL     1       3.035 -11.670   1.749  0.00  0.00    +0.000 C 
ATOM      2  H   UNL     1       2.329 -11.622   0.910  0.00  0.00    +0.000 HD
ATOM      3  H   UNL     1       3.181 -10.639   2.093  0.00  0.00    +0.000 HD
ENDROOT
BRANCH   1   4
ATOM      4  C   UNL     1       2.408 -12.478   2.877  0.00  0.00    +0.000 C 
ATOM      5  H   UNL     1       2.062 -11.821   3.681  0.00  0.00    +0.000 HD
ATOM      6  H   UNL     1       3.128 -13.186   3.297  0.00  0.00    +0.000 HD
ATOM      7  H   UNL     1       1.548 -13.045   2.505  0.00  0.00    +0.000 HD
ENDBRANCH   1   4
BRANCH   1   8
ATOM      8  C   UNL     1       4.362 -12.250   1.274  0.00  0.00    +0.000 C 
ATOM      9  H   UNL     1       5.194 -11.697   1.723  0.00  0.00    +0.000 HD
ATOM     10  H   UNL     1       4.431 -13.302   1.571  0.00  0.00    +0.000 HD
BRANCH   8  12
ATOM     11  O   UNL     1       4.847 -13.114  -0.928  0.00  0.00    +0.000 OA
ATOM     12  C   UNL     1       4.503 -12.172  -0.225  0.00  0.00    +0.000 C 
BRANCH  12  13
ATOM     13  O   UNL     1       4.182 -10.952  -0.723  0.00  0.00    +0.000 OA
ATOM     14  H   UNL     1       3.263 -10.694  -0.498  0.00  0.00    +0.000 HD
ENDBRANCH  12  13
ENDBRANCH   8  12
ENDBRANCH   1   8
TORSDOF 4
ENDMDL
MODEL 9
REMARK VINA RESULT:    -3.103      3.711      4.501
REMARK INTER + INTRA:          -3.664
REMARK INTER:                  -3.659
REMARK INTRA:                  -0.005
REMARK UNBOUND:                -0.017
REMARK  Name = 264
REMARK  4 active torsions:
REMARK  status: ('A' for Active; 'I' for Inactive)
REMARK    1  A    between atoms: O_1  and  C_6
REMARK    2  A    between atoms: C_3  and  C_4
REMARK    3  A    between atoms: C_3  and  C_5
REMARK    4  A    between atoms: C_4  and  C_6
REMARK                            x       y       z     vdW  Elec       q    Type
REMARK                         _______ _______ _______ _____ _____    ______ ____
ROOT
ATOM      1  C   UNL     1      11.041  -8.978  -1.657  0.00  0.00    +0.000 C 
ATOM      2  H   UNL     1      10.845  -8.116  -2.306  0.00  0.00    +0.000 HD
ATOM      3  H   UNL     1      11.793  -8.655  -0.928  0.00  0.00    +0.000 HD
ENDROOT
BRANCH   1   4
ATOM      4  C   UNL     1       9.761  -9.337  -0.914  0.00  0.00    +0.000 C 
ATOM      5  H   UNL     1       9.135 -10.003  -1.516  0.00  0.00    +0.000 HD
ATOM      6  H   UNL     1       9.181  -8.439  -0.680  0.00  0.00    +0.000 HD
ATOM      7  H   UNL     1       9.997  -9.846   0.025  0.00  0.00    +0.000 HD
ENDBRANCH   1   4
BRANCH   1   8
ATOM      8  C   UNL     1      11.587 -10.134  -2.485  0.00  0.00    +0.000 C 
ATOM      9  H   UNL     1      11.989 -10.911  -1.825  0.00  0.00    +0.000 HD
ATOM     10  H   UNL     1      10.784 -10.565  -3.093  0.00  0.00    +0.000 HD
BRANCH   8  12
ATOM     11  O   UNL     1      12.520  -9.399  -4.588  0.00  0.00    +0.000 OA
ATOM     12  C   UNL     1      12.692  -9.689  -3.410  0.00  0.00    +0.000 C 
BRANCH  12  13
ATOM     13  O   UNL     1      13.898  -9.615  -2.795  0.00  0.00    +0.000 OA
ATOM     14  H   UNL     1      14.018  -8.763  -2.323  0.00  0.00    +0.000 HD
ENDBRANCH  12  13
ENDBRANCH   8  12
ENDBRANCH   1   8
TORSDOF 4
ENDMDL
MODEL 10
REMARK VINA RESULT:    -3.047     26.238     27.067
REMARK INTER + INTRA:          -3.598
REMARK INTER:                  -3.582
REMARK INTRA:                  -0.017
REMARK UNBOUND:                -0.017
REMARK  Name = 264
REMARK  4 active torsions:
REMARK  status: ('A' for Active; 'I' for Inactive)
REMARK    1  A    between atoms: O_1  and  C_6
REMARK    2  A    between atoms: C_3  and  C_4
REMARK    3  A    between atoms: C_3  and  C_5
REMARK    4  A    between atoms: C_4  and  C_6
REMARK                            x       y       z     vdW  Elec       q    Type
REMARK                         _______ _______ _______ _____ _____    ______ ____
ROOT
ATOM      1  C   UNL     1      -2.766  12.589  10.892  0.00  0.00    +0.000 C 
ATOM      2  H   UNL     1      -1.705  12.438  11.125  0.00  0.00    +0.000 HD
ATOM      3  H   UNL     1      -3.189  13.171  11.719  0.00  0.00    +0.000 HD
ENDROOT
BRANCH   1   4
ATOM      4  C   UNL     1      -2.880  13.405   9.611  0.00  0.00    +0.000 C 
ATOM      5  H   UNL     1      -1.948  13.940   9.407  0.00  0.00    +0.000 HD
ATOM      6  H   UNL     1      -3.688  14.138   9.686  0.00  0.00    +0.000 HD
ATOM      7  H   UNL     1      -3.091  12.749   8.761  0.00  0.00    +0.000 HD
ENDBRANCH   1   4
BRANCH   1   8
ATOM      8  C   UNL     1      -3.470  11.240  10.796  0.00  0.00    +0.000 C 
ATOM      9  H   UNL     1      -4.471  11.308  11.235  0.00  0.00    +0.000 HD
ATOM     10  H   UNL     1      -3.560  10.945   9.746  0.00  0.00    +0.000 HD
BRANCH   8  12
ATOM     11  O   UNL     1      -1.495  10.029  11.479  0.00  0.00    +0.000 OA
ATOM     12  C   UNL     1      -2.712  10.160  11.526  0.00  0.00    +0.000 C 
BRANCH  12  13
ATOM     13  O   UNL     1      -3.517   9.358  12.266  0.00  0.00    +0.000 OA
ATOM     14  H   UNL     1      -4.144   9.874  12.816  0.00  0.00    +0.000 HD
ENDBRANCH  12  13
ENDBRANCH   8  12
ENDBRANCH   1   8
TORSDOF 4
ENDMDL
