MODEL 1
REMARK VINA RESULT:    -4.936      0.000      0.000
REMARK INTER + INTRA:          -5.368
REMARK INTER:                  -5.368
REMARK INTRA:                   0.000
REMARK UNBOUND:                 0.000
REMARK  Name = 2537
REMARK  3 active torsions:
REMARK  status: ('A' for Active; 'I' for Inactive)
REMARK    1  A    between atoms: C_2  and  C_9
REMARK    2  A    between atoms: C_2  and  C_10
REMARK    3  A    between atoms: C_3  and  C_11
REMARK                            x       y       z     vdW  Elec       q    Type
REMARK                         _______ _______ _______ _____ _____    ______ ____
ROOT
ATOM      1  O   UNL     1       7.676  -4.405   0.143  0.00  0.00    +0.000 OA
ATOM      2  C   UNL     1       9.733  -1.992  -1.331  0.00  0.00    +0.000 C 
ATOM      3  C   UNL     1       8.241  -2.364  -1.108  0.00  0.00    +0.000 C 
ATOM      4  C   UNL     1       9.973  -3.224  -2.247  0.00  0.00    +0.000 C 
ATOM      5  C   UNL     1       7.676  -2.503  -2.540  0.00  0.00    +0.000 C 
ATOM      6  C   UNL     1       8.874  -3.072  -3.330  0.00  0.00    +0.000 C 
ATOM      7  C   UNL     1       9.583  -4.436  -1.365  0.00  0.00    +0.000 C 
ATOM      8  C   UNL     1       8.397  -3.819  -0.651  0.00  0.00    +0.000 C 
ATOM      9  H   UNL     1      10.979  -3.310  -2.666  0.00  0.00    +0.000 HD
ATOM     10  H   UNL     1       7.357  -1.541  -2.956  0.00  0.00    +0.000 HD
ATOM     11  H   UNL     1       6.819  -3.186  -2.586  0.00  0.00    +0.000 HD
ATOM     12  H   UNL     1       8.627  -4.025  -3.811  0.00  0.00    +0.000 HD
ATOM     13  H   UNL     1       9.184  -2.379  -4.119  0.00  0.00    +0.000 HD
ATOM     14  H   UNL     1      10.365  -4.700  -0.650  0.00  0.00    +0.000 HD
ATOM     15  H   UNL     1       9.280  -5.307  -1.951  0.00  0.00    +0.000 HD
ENDROOT
BRANCH   2  16
ATOM     16  C   UNL     1       9.968  -0.640  -2.033  0.00  0.00    +0.000 C 
ATOM     17  H   UNL     1      10.994  -0.481  -2.371  0.00  0.00    +0.000 HD
ATOM     18  H   UNL     1       9.721   0.186  -1.357  0.00  0.00    +0.000 HD
ATOM     19  H   UNL     1       9.330  -0.548  -2.919  0.00  0.00    +0.000 HD
ENDBRANCH   2  16
BRANCH   2  20
ATOM     20  C   UNL     1      10.590  -1.976  -0.048  0.00  0.00    +0.000 C 
ATOM     21  H   UNL     1      11.641  -2.171  -0.290  0.00  0.00    +0.000 HD
ATOM     22  H   UNL     1      10.286  -2.712   0.700  0.00  0.00    +0.000 HD
ATOM     23  H   UNL     1      10.536  -0.997   0.442  0.00  0.00    +0.000 HD
ENDBRANCH   2  20
BRANCH   3  24
ATOM     24  C   UNL     1       7.427  -1.496  -0.180  0.00  0.00    +0.000 C 
ATOM     25  H   UNL     1       6.999  -0.638  -0.708  0.00  0.00    +0.000 HD
ATOM     26  H   UNL     1       6.599  -2.063   0.260  0.00  0.00    +0.000 HD
ATOM     27  H   UNL     1       8.034  -1.118   0.649  0.00  0.00    +0.000 HD
ENDBRANCH   3  24
TORSDOF 3
ENDMDL
MODEL 2
REMARK VINA RESULT:    -4.935     17.657     19.189
REMARK INTER + INTRA:          -5.368
REMARK INTER:                  -5.368
REMARK INTRA:                   0.000
REMARK UNBOUND:                 0.000
REMARK  Name = 2537
REMARK  3 active torsions:
REMARK  status: ('A' for Active; 'I' for Inactive)
REMARK    1  A    between atoms: C_2  and  C_9
REMARK    2  A    between atoms: C_2  and  C_10
REMARK    3  A    between atoms: C_3  and  C_11
REMARK                            x       y       z     vdW  Elec       q    Type
REMARK                         _______ _______ _______ _____ _____    ______ ____
ROOT
ATOM      1  O   UNL     1       2.086  -5.576  13.301  0.00  0.00    +0.000 OA
ATOM      2  C   UNL     1       1.787  -6.104  16.744  0.00  0.00    +0.000 C 
ATOM      3  C   UNL     1       1.664  -6.828  15.375  0.00  0.00    +0.000 C 
ATOM      4  C   UNL     1       0.562  -5.195  16.450  0.00  0.00    +0.000 C 
ATOM      5  C   UNL     1       0.202  -7.327  15.350  0.00  0.00    +0.000 C 
ATOM      6  C   UNL     1      -0.555  -6.215  16.110  0.00  0.00    +0.000 C 
ATOM      7  C   UNL     1       0.934  -4.468  15.134  0.00  0.00    +0.000 C 
ATOM      8  C   UNL     1       1.637  -5.617  14.437  0.00  0.00    +0.000 C 
ATOM      9  H   UNL     1       0.284  -4.506  17.251  0.00  0.00    +0.000 HD
ATOM     10  H   UNL     1       0.083  -8.292  15.854  0.00  0.00    +0.000 HD
ATOM     11  H   UNL     1      -0.185  -7.434  14.330  0.00  0.00    +0.000 HD
ATOM     12  H   UNL     1      -1.351  -5.776  15.499  0.00  0.00    +0.000 HD
ATOM     13  H   UNL     1      -1.021  -6.613  17.017  0.00  0.00    +0.000 HD
ATOM     14  H   UNL     1       1.626  -3.639  15.297  0.00  0.00    +0.000 HD
ATOM     15  H   UNL     1       0.059  -4.141  14.568  0.00  0.00    +0.000 HD
ENDROOT
BRANCH   2  16
ATOM     16  C   UNL     1       1.608  -7.010  17.978  0.00  0.00    +0.000 C 
ATOM     17  H   UNL     1       2.524  -7.187  18.544  0.00  0.00    +0.000 HD
ATOM     18  H   UNL     1       1.223  -7.990  17.676  0.00  0.00    +0.000 HD
ATOM     19  H   UNL     1       0.889  -6.571  18.679  0.00  0.00    +0.000 HD
ENDBRANCH   2  16
BRANCH   2  20
ATOM     20  C   UNL     1       3.112  -5.340  16.951  0.00  0.00    +0.000 C 
ATOM     21  H   UNL     1       3.598  -5.152  15.987  0.00  0.00    +0.000 HD
ATOM     22  H   UNL     1       3.834  -5.863  17.583  0.00  0.00    +0.000 HD
ATOM     23  H   UNL     1       2.930  -4.370  17.428  0.00  0.00    +0.000 HD
ENDBRANCH   2  20
BRANCH   3  24
ATOM     24  C   UNL     1       2.702  -7.869  15.030  0.00  0.00    +0.000 C 
ATOM     25  H   UNL     1       2.364  -8.874  15.302  0.00  0.00    +0.000 HD
ATOM     26  H   UNL     1       2.915  -7.867  13.955  0.00  0.00    +0.000 HD
ATOM     27  H   UNL     1       3.648  -7.676  15.546  0.00  0.00    +0.000 HD
ENDBRANCH   3  24
TORSDOF 3
ENDMDL
MODEL 3
REMARK VINA RESULT:    -4.687      1.200      3.032
REMARK INTER + INTRA:          -5.098
REMARK INTER:                  -5.098
REMARK INTRA:                   0.000
REMARK UNBOUND:                 0.000
REMARK  Name = 2537
REMARK  3 active torsions:
REMARK  status: ('A' for Active; 'I' for Inactive)
REMARK    1  A    between atoms: C_2  and  C_9
REMARK    2  A    between atoms: C_2  and  C_10
REMARK    3  A    between atoms: C_3  and  C_11
REMARK                            x       y       z     vdW  Elec       q    Type
REMARK                         _______ _______ _______ _____ _____    ______ ____
ROOT
ATOM      1  O   UNL     1       6.187  -5.006  -0.999  0.00  0.00    +0.000 OA
ATOM      2  C   UNL     1       8.429  -2.374  -1.515  0.00  0.00    +0.000 C 
ATOM      3  C   UNL     1       8.231  -3.674  -0.689  0.00  0.00    +0.000 C 
ATOM      4  C   UNL     1       7.251  -1.658  -0.798  0.00  0.00    +0.000 C 
ATOM      5  C   UNL     1       8.275  -3.191   0.779  0.00  0.00    +0.000 C 
ATOM      6  C   UNL     1       7.623  -1.793   0.701  0.00  0.00    +0.000 C 
ATOM      7  C   UNL     1       6.033  -2.580  -1.053  0.00  0.00    +0.000 C 
ATOM      8  C   UNL     1       6.738  -3.918  -0.932  0.00  0.00    +0.000 C 
ATOM      9  H   UNL     1       7.072  -0.624  -1.103  0.00  0.00    +0.000 HD
ATOM     10  H   UNL     1       9.299  -3.121   1.162  0.00  0.00    +0.000 HD
ATOM     11  H   UNL     1       7.711  -3.848   1.451  0.00  0.00    +0.000 HD
ATOM     12  H   UNL     1       6.748  -1.717   1.357  0.00  0.00    +0.000 HD
ATOM     13  H   UNL     1       8.330  -1.016   1.009  0.00  0.00    +0.000 HD
ATOM     14  H   UNL     1       5.619  -2.456  -2.055  0.00  0.00    +0.000 HD
ATOM     15  H   UNL     1       5.255  -2.476  -0.293  0.00  0.00    +0.000 HD
ENDROOT
BRANCH   2  16
ATOM     16  C   UNL     1       9.790  -1.679  -1.319  0.00  0.00    +0.000 C 
ATOM     17  H   UNL     1       9.970  -0.840  -1.995  0.00  0.00    +0.000 HD
ATOM     18  H   UNL     1      10.607  -2.393  -1.471  0.00  0.00    +0.000 HD
ATOM     19  H   UNL     1       9.880  -1.283  -0.301  0.00  0.00    +0.000 HD
ENDBRANCH   2  16
BRANCH   2  20
ATOM     20  C   UNL     1       8.238  -2.543  -3.037  0.00  0.00    +0.000 C 
ATOM     21  H   UNL     1       8.813  -3.403  -3.399  0.00  0.00    +0.000 HD
ATOM     22  H   UNL     1       8.548  -1.674  -3.624  0.00  0.00    +0.000 HD
ATOM     23  H   UNL     1       7.184  -2.719  -3.279  0.00  0.00    +0.000 HD
ENDBRANCH   2  20
BRANCH   3  24
ATOM     24  C   UNL     1       9.121  -4.853  -1.002  0.00  0.00    +0.000 C 
ATOM     25  H   UNL     1       9.892  -4.587  -1.733  0.00  0.00    +0.000 HD
ATOM     26  H   UNL     1       9.626  -5.212  -0.098  0.00  0.00    +0.000 HD
ATOM     27  H   UNL     1       8.545  -5.693  -1.404  0.00  0.00    +0.000 HD
ENDBRANCH   3  24
TORSDOF 3
ENDMDL
MODEL 4
REMARK VINA RESULT:    -4.627     17.416     18.510
REMARK INTER + INTRA:          -5.032
REMARK INTER:                  -5.032
REMARK INTRA:                   0.000
REMARK UNBOUND:                 0.000
REMARK  Name = 2537
REMARK  3 active torsions:
REMARK  status: ('A' for Active; 'I' for Inactive)
REMARK    1  A    between atoms: C_2  and  C_9
REMARK    2  A    between atoms: C_2  and  C_10
REMARK    3  A    between atoms: C_3  and  C_11
REMARK                            x       y       z     vdW  Elec       q    Type
REMARK                         _______ _______ _______ _____ _____    ______ ____
ROOT
ATOM      1  O   UNL     1       2.709  -8.282  16.095  0.00  0.00    +0.000 OA
ATOM      2  C   UNL     1       3.070  -4.869  15.429  0.00  0.00    +0.000 C 
ATOM      3  C   UNL     1       2.461  -5.862  16.457  0.00  0.00    +0.000 C 
ATOM      4  C   UNL     1       2.083  -5.313  14.314  0.00  0.00    +0.000 C 
ATOM      5  C   UNL     1       0.953  -5.524  16.450  0.00  0.00    +0.000 C 
ATOM      6  C   UNL     1       0.696  -5.122  14.981  0.00  0.00    +0.000 C 
ATOM      7  C   UNL     1       2.320  -6.837  14.179  0.00  0.00    +0.000 C 
ATOM      8  C   UNL     1       2.532  -7.160  15.645  0.00  0.00    +0.000 C 
ATOM      9  H   UNL     1       2.177  -4.782  13.363  0.00  0.00    +0.000 HD
ATOM     10  H   UNL     1       0.709  -4.698  17.127  0.00  0.00    +0.000 HD
ATOM     11  H   UNL     1       0.332  -6.381  16.734  0.00  0.00    +0.000 HD
ATOM     12  H   UNL     1      -0.079  -5.745  14.520  0.00  0.00    +0.000 HD
ATOM     13  H   UNL     1       0.360  -4.082  14.915  0.00  0.00    +0.000 HD
ATOM     14  H   UNL     1       3.219  -7.069  13.603  0.00  0.00    +0.000 HD
ATOM     15  H   UNL     1       1.453  -7.368  13.780  0.00  0.00    +0.000 HD
ENDROOT
BRANCH   2  16
ATOM     16  C   UNL     1       2.948  -3.381  15.811  0.00  0.00    +0.000 C 
ATOM     17  H   UNL     1       3.321  -2.689  15.052  0.00  0.00    +0.000 HD
ATOM     18  H   UNL     1       3.507  -3.178  16.731  0.00  0.00    +0.000 HD
ATOM     19  H   UNL     1       1.901  -3.112  15.990  0.00  0.00    +0.000 HD
ENDBRANCH   2  16
BRANCH   2  20
ATOM     20  C   UNL     1       4.556  -5.116  15.098  0.00  0.00    +0.000 C 
ATOM     21  H   UNL     1       4.909  -4.386  14.360  0.00  0.00    +0.000 HD
ATOM     22  H   UNL     1       4.763  -6.112  14.695  0.00  0.00    +0.000 HD
ATOM     23  H   UNL     1       5.176  -5.012  15.995  0.00  0.00    +0.000 HD
ENDBRANCH   2  20
BRANCH   3  24
ATOM     24  C   UNL     1       3.094  -5.939  17.825  0.00  0.00    +0.000 C 
ATOM     25  H   UNL     1       2.380  -6.294  18.575  0.00  0.00    +0.000 HD
ATOM     26  H   UNL     1       3.946  -6.628  17.822  0.00  0.00    +0.000 HD
ATOM     27  H   UNL     1       3.471  -4.963  18.147  0.00  0.00    +0.000 HD
ENDBRANCH   3  24
TORSDOF 3
ENDMDL
MODEL 5
REMARK VINA RESULT:    -4.519      1.614      2.966
REMARK INTER + INTRA:          -4.915
REMARK INTER:                  -4.915
REMARK INTRA:                   0.000
REMARK UNBOUND:                 0.000
REMARK  Name = 2537
REMARK  3 active torsions:
REMARK  status: ('A' for Active; 'I' for Inactive)
REMARK    1  A    between atoms: C_2  and  C_9
REMARK    2  A    between atoms: C_2  and  C_10
REMARK    3  A    between atoms: C_3  and  C_11
REMARK                            x       y       z     vdW  Elec       q    Type
REMARK                         _______ _______ _______ _____ _____    ______ ____
ROOT
ATOM      1  O   UNL     1       7.488  -2.547  -3.710  0.00  0.00    +0.000 OA
ATOM      2  C   UNL     1       8.218  -2.263  -0.303  0.00  0.00    +0.000 C 
ATOM      3  C   UNL     1       8.883  -2.509  -1.685  0.00  0.00    +0.000 C 
ATOM      4  C   UNL     1       7.449  -3.612  -0.356  0.00  0.00    +0.000 C 
ATOM      5  C   UNL     1       9.552  -3.894  -1.532  0.00  0.00    +0.000 C 
ATOM      6  C   UNL     1       8.579  -4.646  -0.598  0.00  0.00    +0.000 C 
ATOM      7  C   UNL     1       6.619  -3.526  -1.661  0.00  0.00    +0.000 C 
ATOM      8  C   UNL     1       7.639  -2.812  -2.527  0.00  0.00    +0.000 C 
ATOM      9  H   UNL     1       6.840  -3.841   0.521  0.00  0.00    +0.000 HD
ATOM     10  H   UNL     1      10.549  -3.827  -1.082  0.00  0.00    +0.000 HD
ATOM     11  H   UNL     1       9.654  -4.416  -2.491  0.00  0.00    +0.000 HD
ATOM     12  H   UNL     1       8.208  -5.569  -1.058  0.00  0.00    +0.000 HD
ATOM     13  H   UNL     1       9.074  -4.923   0.338  0.00  0.00    +0.000 HD
ATOM     14  H   UNL     1       5.722  -2.914  -1.544  0.00  0.00    +0.000 HD
ATOM     15  H   UNL     1       6.372  -4.507  -2.072  0.00  0.00    +0.000 HD
ENDROOT
BRANCH   2  16
ATOM     16  C   UNL     1       9.199  -2.152   0.881  0.00  0.00    +0.000 C 
ATOM     17  H   UNL     1       9.704  -3.087   1.136  0.00  0.00    +0.000 HD
ATOM     18  H   UNL     1       8.672  -1.817   1.781  0.00  0.00    +0.000 HD
ATOM     19  H   UNL     1       9.987  -1.422   0.664  0.00  0.00    +0.000 HD
ENDBRANCH   2  16
BRANCH   2  20
ATOM     20  C   UNL     1       7.311  -1.016  -0.238  0.00  0.00    +0.000 C 
ATOM     21  H   UNL     1       7.123  -0.629  -1.246  0.00  0.00    +0.000 HD
ATOM     22  H   UNL     1       7.725  -0.194   0.353  0.00  0.00    +0.000 HD
ATOM     23  H   UNL     1       6.343  -1.263   0.212  0.00  0.00    +0.000 HD
ENDBRANCH   2  20
BRANCH   3  24
ATOM     24  C   UNL     1       9.773  -1.426  -2.244  0.00  0.00    +0.000 C 
ATOM     25  H   UNL     1      10.305  -1.768  -3.138  0.00  0.00    +0.000 HD
ATOM     26  H   UNL     1       9.187  -0.543  -2.522  0.00  0.00    +0.000 HD
ATOM     27  H   UNL     1      10.516  -1.099  -1.509  0.00  0.00    +0.000 HD
ENDBRANCH   3  24
TORSDOF 3
ENDMDL
MODEL 6
REMARK VINA RESULT:    -4.517     17.323     18.831
REMARK INTER + INTRA:          -4.913
REMARK INTER:                  -4.913
REMARK INTRA:                   0.000
REMARK UNBOUND:                 0.000
REMARK  Name = 2537
REMARK  3 active torsions:
REMARK  status: ('A' for Active; 'I' for Inactive)
REMARK    1  A    between atoms: C_2  and  C_9
REMARK    2  A    between atoms: C_2  and  C_10
REMARK    3  A    between atoms: C_3  and  C_11
REMARK                            x       y       z     vdW  Elec       q    Type
REMARK                         _______ _______ _______ _____ _____    ______ ____
ROOT
ATOM      1  O   UNL     1      -0.565  -5.554  16.123  0.00  0.00    +0.000 OA
ATOM      2  C   UNL     1       2.679  -5.888  14.862  0.00  0.00    +0.000 C 
ATOM      3  C   UNL     1       1.735  -6.414  15.978  0.00  0.00    +0.000 C 
ATOM      4  C   UNL     1       2.715  -4.460  15.472  0.00  0.00    +0.000 C 
ATOM      5  C   UNL     1       2.471  -6.050  17.287  0.00  0.00    +0.000 C 
ATOM      6  C   UNL     1       3.166  -4.717  16.933  0.00  0.00    +0.000 C 
ATOM      7  C   UNL     1       1.229  -4.028  15.520  0.00  0.00    +0.000 C 
ATOM      8  C   UNL     1       0.621  -5.364  15.899  0.00  0.00    +0.000 C 
ATOM      9  H   UNL     1       3.350  -3.741  14.948  0.00  0.00    +0.000 HD
ATOM     10  H   UNL     1       3.207  -6.808  17.575  0.00  0.00    +0.000 HD
ATOM     11  H   UNL     1       1.782  -5.918  18.130  0.00  0.00    +0.000 HD
ATOM     12  H   UNL     1       2.866  -3.910  17.611  0.00  0.00    +0.000 HD
ATOM     13  H   UNL     1       4.254  -4.815  17.004  0.00  0.00    +0.000 HD
ATOM     14  H   UNL     1       0.858  -3.702  14.546  0.00  0.00    +0.000 HD
ATOM     15  H   UNL     1       1.031  -3.274  16.285  0.00  0.00    +0.000 HD
ENDROOT
BRANCH   2  16
ATOM     16  C   UNL     1       4.058  -6.574  14.800  0.00  0.00    +0.000 C 
ATOM     17  H   UNL     1       4.113  -7.412  14.102  0.00  0.00    +0.000 HD
ATOM     18  H   UNL     1       4.334  -6.960  15.787  0.00  0.00    +0.000 HD
ATOM     19  H   UNL     1       4.831  -5.861  14.492  0.00  0.00    +0.000 HD
ENDBRANCH   2  16
BRANCH   2  20
ATOM     20  C   UNL     1       2.091  -5.957  13.437  0.00  0.00    +0.000 C 
ATOM     21  H   UNL     1       1.166  -5.372  13.377  0.00  0.00    +0.000 HD
ATOM     22  H   UNL     1       1.857  -6.971  13.100  0.00  0.00    +0.000 HD
ATOM     23  H   UNL     1       2.795  -5.544  12.706  0.00  0.00    +0.000 HD
ENDBRANCH   2  20
BRANCH   3  24
ATOM     24  C   UNL     1       1.260  -7.844  15.887  0.00  0.00    +0.000 C 
ATOM     25  H   UNL     1       1.908  -8.517  16.457  0.00  0.00    +0.000 HD
ATOM     26  H   UNL     1       0.243  -7.944  16.283  0.00  0.00    +0.000 HD
ATOM     27  H   UNL     1       1.235  -8.192  14.849  0.00  0.00    +0.000 HD
ENDBRANCH   3  24
TORSDOF 3
ENDMDL
MODEL 7
REMARK VINA RESULT:    -4.315     15.340     16.935
REMARK INTER + INTRA:          -4.694
REMARK INTER:                  -4.694
REMARK INTRA:                   0.000
REMARK UNBOUND:                 0.000
REMARK  Name = 2537
REMARK  3 active torsions:
REMARK  status: ('A' for Active; 'I' for Inactive)
REMARK    1  A    between atoms: C_2  and  C_9
REMARK    2  A    between atoms: C_2  and  C_10
REMARK    3  A    between atoms: C_3  and  C_11
REMARK                            x       y       z     vdW  Elec       q    Type
REMARK                         _______ _______ _______ _____ _____    ______ ____
ROOT
ATOM      1  O   UNL     1      -5.787  -8.755  -7.885  0.00  0.00    +0.000 OA
ATOM      2  C   UNL     1      -4.307  -8.166 -10.997  0.00  0.00    +0.000 C 
ATOM      3  C   UNL     1      -4.051  -8.847  -9.624  0.00  0.00    +0.000 C 
ATOM      4  C   UNL     1      -4.312  -6.746 -10.369  0.00  0.00    +0.000 C 
ATOM      5  C   UNL     1      -2.790  -8.133  -9.086  0.00  0.00    +0.000 C 
ATOM      6  C   UNL     1      -2.956  -6.692  -9.618  0.00  0.00    +0.000 C 
ATOM      7  C   UNL     1      -5.427  -6.807  -9.295  0.00  0.00    +0.000 C 
ATOM      8  C   UNL     1      -5.184  -8.221  -8.804  0.00  0.00    +0.000 C 
ATOM      9  H   UNL     1      -4.444  -5.920 -11.072  0.00  0.00    +0.000 HD
ATOM     10  H   UNL     1      -1.865  -8.583  -9.464  0.00  0.00    +0.000 HD
ATOM     11  H   UNL     1      -2.741  -8.141  -7.991  0.00  0.00    +0.000 HD
ATOM     12  H   UNL     1      -2.956  -5.958  -8.806  0.00  0.00    +0.000 HD
ATOM     13  H   UNL     1      -2.135  -6.431 -10.294  0.00  0.00    +0.000 HD
ATOM     14  H   UNL     1      -6.426  -6.720  -9.728  0.00  0.00    +0.000 HD
ATOM     15  H   UNL     1      -5.283  -6.081  -8.492  0.00  0.00    +0.000 HD
ENDROOT
BRANCH   2  16
ATOM     16  C   UNL     1      -3.197  -8.379 -12.045  0.00  0.00    +0.000 C 
ATOM     17  H   UNL     1      -3.550  -8.385 -13.079  0.00  0.00    +0.000 HD
ATOM     18  H   UNL     1      -2.691  -9.335 -11.874  0.00  0.00    +0.000 HD
ATOM     19  H   UNL     1      -2.444  -7.586 -11.978  0.00  0.00    +0.000 HD
ENDBRANCH   2  16
BRANCH   2  20
ATOM     20  C   UNL     1      -5.634  -8.567 -11.676  0.00  0.00    +0.000 C 
ATOM     21  H   UNL     1      -6.441  -7.896 -11.359  0.00  0.00    +0.000 HD
ATOM     22  H   UNL     1      -5.955  -9.589 -11.458  0.00  0.00    +0.000 HD
ATOM     23  H   UNL     1      -5.548  -8.496 -12.766  0.00  0.00    +0.000 HD
ENDBRANCH   2  20
BRANCH   3  24
ATOM     24  C   UNL     1      -4.001 -10.355  -9.581  0.00  0.00    +0.000 C 
ATOM     25  H   UNL     1      -4.127 -10.729  -8.559  0.00  0.00    +0.000 HD
ATOM     26  H   UNL     1      -4.796 -10.789 -10.197  0.00  0.00    +0.000 HD
ATOM     27  H   UNL     1      -3.050 -10.735  -9.968  0.00  0.00    +0.000 HD
ENDBRANCH   3  24
TORSDOF 3
ENDMDL
MODEL 8
REMARK VINA RESULT:    -4.315     14.472     15.769
REMARK INTER + INTRA:          -4.693
REMARK INTER:                  -4.693
REMARK INTRA:                   0.000
REMARK UNBOUND:                 0.000
REMARK  Name = 2537
REMARK  3 active torsions:
REMARK  status: ('A' for Active; 'I' for Inactive)
REMARK    1  A    between atoms: C_2  and  C_9
REMARK    2  A    between atoms: C_2  and  C_10
REMARK    3  A    between atoms: C_3  and  C_11
REMARK                            x       y       z     vdW  Elec       q    Type
REMARK                         _______ _______ _______ _____ _____    ______ ____
ROOT
ATOM      1  O   UNL     1      17.900  11.208   0.139  0.00  0.00    +0.000 OA
ATOM      2  C   UNL     1      15.965   9.962   2.771  0.00  0.00    +0.000 C 
ATOM      3  C   UNL     1      17.315  10.669   2.466  0.00  0.00    +0.000 C 
ATOM      4  C   UNL     1      16.407   8.659   2.050  0.00  0.00    +0.000 C 
ATOM      5  C   UNL     1      18.378   9.691   3.018  0.00  0.00    +0.000 C 
ATOM      6  C   UNL     1      17.743   8.308   2.754  0.00  0.00    +0.000 C 
ATOM      7  C   UNL     1      16.754   9.117   0.612  0.00  0.00    +0.000 C 
ATOM      8  C   UNL     1      17.392  10.450   0.951  0.00  0.00    +0.000 C 
ATOM      9  H   UNL     1      15.683   7.840   2.073  0.00  0.00    +0.000 HD
ATOM     10  H   UNL     1      18.561   9.837   4.088  0.00  0.00    +0.000 HD
ATOM     11  H   UNL     1      19.339   9.784   2.499  0.00  0.00    +0.000 HD
ATOM     12  H   UNL     1      18.389   7.677   2.133  0.00  0.00    +0.000 HD
ATOM     13  H   UNL     1      17.571   7.773   3.694  0.00  0.00    +0.000 HD
ATOM     14  H   UNL     1      15.864   9.265  -0.004  0.00  0.00    +0.000 HD
ATOM     15  H   UNL     1      17.466   8.455   0.115  0.00  0.00    +0.000 HD
ENDROOT
BRANCH   2  16
ATOM     16  C   UNL     1      15.655   9.771   4.268  0.00  0.00    +0.000 C 
ATOM     17  H   UNL     1      14.721  10.230   4.597  0.00  0.00    +0.000 HD
ATOM     18  H   UNL     1      16.456  10.200   4.880  0.00  0.00    +0.000 HD
ATOM     19  H   UNL     1      15.582   8.706   4.515  0.00  0.00    +0.000 HD
ENDBRANCH   2  16
BRANCH   2  20
ATOM     20  C   UNL     1      14.728  10.644   2.151  0.00  0.00    +0.000 C 
ATOM     21  H   UNL     1      14.925  11.709   1.979  0.00  0.00    +0.000 HD
ATOM     22  H   UNL     1      13.826  10.576   2.766  0.00  0.00    +0.000 HD
ATOM     23  H   UNL     1      14.478  10.190   1.185  0.00  0.00    +0.000 HD
ENDBRANCH   2  20
BRANCH   3  24
ATOM     24  C   UNL     1      17.476  12.104   2.904  0.00  0.00    +0.000 C 
ATOM     25  H   UNL     1      17.064  12.796   2.163  0.00  0.00    +0.000 HD
ATOM     26  H   UNL     1      16.958  12.283   3.853  0.00  0.00    +0.000 HD
ATOM     27  H   UNL     1      18.530  12.359   3.060  0.00  0.00    +0.000 HD
ENDBRANCH   3  24
TORSDOF 3
ENDMDL
MODEL 9
REMARK VINA RESULT:    -4.214     35.478     37.075
REMARK INTER + INTRA:          -4.584
REMARK INTER:                  -4.584
REMARK INTRA:                   0.000
REMARK UNBOUND:                 0.000
REMARK  Name = 2537
REMARK  3 active torsions:
REMARK  status: ('A' for Active; 'I' for Inactive)
REMARK    1  A    between atoms: C_2  and  C_9
REMARK    2  A    between atoms: C_2  and  C_10
REMARK    3  A    between atoms: C_3  and  C_11
REMARK                            x       y       z     vdW  Elec       q    Type
REMARK                         _______ _______ _______ _____ _____    ______ ____
ROOT
ATOM      1  O   UNL     1     -24.051   8.824   3.445  0.00  0.00    +0.000 OA
ATOM      2  C   UNL     1     -25.582  11.466   5.147  0.00  0.00    +0.000 C 
ATOM      3  C   UNL     1     -25.376  10.877   3.724  0.00  0.00    +0.000 C 
ATOM      4  C   UNL     1     -24.076  11.817   5.294  0.00  0.00    +0.000 C 
ATOM      5  C   UNL     1     -24.672  12.015   2.950  0.00  0.00    +0.000 C 
ATOM      6  C   UNL     1     -23.795  12.679   4.035  0.00  0.00    +0.000 C 
ATOM      7  C   UNL     1     -23.348  10.465   5.095  0.00  0.00    +0.000 C 
ATOM      8  C   UNL     1     -24.237   9.892   4.009  0.00  0.00    +0.000 C 
ATOM      9  H   UNL     1     -23.798  12.317   6.225  0.00  0.00    +0.000 HD
ATOM     10  H   UNL     1     -25.384  12.735   2.532  0.00  0.00    +0.000 HD
ATOM     11  H   UNL     1     -24.055  11.640   2.126  0.00  0.00    +0.000 HD
ATOM     12  H   UNL     1     -22.736  12.678   3.756  0.00  0.00    +0.000 HD
ATOM     13  H   UNL     1     -24.091  13.721   4.190  0.00  0.00    +0.000 HD
ATOM     14  H   UNL     1     -23.383   9.838   5.988  0.00  0.00    +0.000 HD
ATOM     15  H   UNL     1     -22.321  10.584   4.741  0.00  0.00    +0.000 HD
ENDROOT
BRANCH   2  16
ATOM     16  C   UNL     1     -26.516  12.690   5.215  0.00  0.00    +0.000 C 
ATOM     17  H   UNL     1     -26.069  13.572   5.679  0.00  0.00    +0.000 HD
ATOM     18  H   UNL     1     -27.418  12.449   5.788  0.00  0.00    +0.000 HD
ATOM     19  H   UNL     1     -26.831  12.993   4.210  0.00  0.00    +0.000 HD
ENDBRANCH   2  16
BRANCH   2  20
ATOM     20  C   UNL     1     -26.105  10.457   6.191  0.00  0.00    +0.000 C 
ATOM     21  H   UNL     1     -26.952  10.883   6.741  0.00  0.00    +0.000 HD
ATOM     22  H   UNL     1     -25.358  10.153   6.929  0.00  0.00    +0.000 HD
ATOM     23  H   UNL     1     -26.450   9.538   5.704  0.00  0.00    +0.000 HD
ENDBRANCH   2  20
BRANCH   3  24
ATOM     24  C   UNL     1     -26.572  10.273   3.029  0.00  0.00    +0.000 C 
ATOM     25  H   UNL     1     -27.448  10.257   3.685  0.00  0.00    +0.000 HD
ATOM     26  H   UNL     1     -26.835  10.849   2.134  0.00  0.00    +0.000 HD
ATOM     27  H   UNL     1     -26.370   9.248   2.703  0.00  0.00    +0.000 HD
ENDBRANCH   3  24
TORSDOF 3
ENDMDL
MODEL 10
REMARK VINA RESULT:    -4.160     14.351     15.710
REMARK INTER + INTRA:          -4.524
REMARK INTER:                  -4.524
REMARK INTRA:                   0.000
REMARK UNBOUND:                 0.000
REMARK  Name = 2537
REMARK  3 active torsions:
REMARK  status: ('A' for Active; 'I' for Inactive)
REMARK    1  A    between atoms: C_2  and  C_9
REMARK    2  A    between atoms: C_2  and  C_10
REMARK    3  A    between atoms: C_3  and  C_11
REMARK                            x       y       z     vdW  Elec       q    Type
REMARK                         _______ _______ _______ _____ _____    ______ ____
ROOT
ATOM      1  O   UNL     1      18.841   9.812   4.050  0.00  0.00    +0.000 OA
ATOM      2  C   UNL     1      15.927  10.795   2.386  0.00  0.00    +0.000 C 
ATOM      3  C   UNL     1      16.531   9.635   3.226  0.00  0.00    +0.000 C 
ATOM      4  C   UNL     1      16.902  10.537   1.204  0.00  0.00    +0.000 C 
ATOM      5  C   UNL     1      16.445   8.413   2.284  0.00  0.00    +0.000 C 
ATOM      6  C   UNL     1      16.677   9.036   0.889  0.00  0.00    +0.000 C 
ATOM      7  C   UNL     1      18.310  10.666   1.836  0.00  0.00    +0.000 C 
ATOM      8  C   UNL     1      18.015  10.015   3.173  0.00  0.00    +0.000 C 
ATOM      9  H   UNL     1      16.766  11.182   0.333  0.00  0.00    +0.000 HD
ATOM     10  H   UNL     1      15.469   7.919   2.332  0.00  0.00    +0.000 HD
ATOM     11  H   UNL     1      17.211   7.661   2.506  0.00  0.00    +0.000 HD
ATOM     12  H   UNL     1      17.534   8.582   0.380  0.00  0.00    +0.000 HD
ATOM     13  H   UNL     1      15.802   8.889   0.248  0.00  0.00    +0.000 HD
ATOM     14  H   UNL     1      18.610  11.707   1.976  0.00  0.00    +0.000 HD
ATOM     15  H   UNL     1      19.074  10.110   1.288  0.00  0.00    +0.000 HD
ENDROOT
BRANCH   2  16
ATOM     16  C   UNL     1      14.441  10.625   2.016  0.00  0.00    +0.000 C 
ATOM     17  H   UNL     1      13.773  11.346   2.492  0.00  0.00    +0.000 HD
ATOM     18  H   UNL     1      14.090   9.627   2.301  0.00  0.00    +0.000 HD
ATOM     19  H   UNL     1      14.297  10.733   0.935  0.00  0.00    +0.000 HD
ENDBRANCH   2  16
BRANCH   2  20
ATOM     20  C   UNL     1      16.062  12.192   3.029  0.00  0.00    +0.000 C 
ATOM     21  H   UNL     1      16.688  12.840   2.405  0.00  0.00    +0.000 HD
ATOM     22  H   UNL     1      16.502  12.181   4.030  0.00  0.00    +0.000 HD
ATOM     23  H   UNL     1      15.081  12.669   3.128  0.00  0.00    +0.000 HD
ENDBRANCH   2  20
BRANCH   3  24
ATOM     24  C   UNL     1      15.987   9.412   4.616  0.00  0.00    +0.000 C 
ATOM     25  H   UNL     1      14.919   9.648   4.670  0.00  0.00    +0.000 HD
ATOM     26  H   UNL     1      16.113   8.367   4.921  0.00  0.00    +0.000 HD
ATOM     27  H   UNL     1      16.511  10.028   5.354  0.00  0.00    +0.000 HD
ENDBRANCH   3  24
TORSDOF 3
ENDMDL
