MODEL 1
REMARK VINA RESULT:    -5.055      0.000      0.000
REMARK INTER + INTRA:          -5.994
REMARK INTER:                  -5.795
REMARK INTRA:                  -0.199
REMARK UNBOUND:                -0.201
REMARK  Name = 10106
REMARK  4 active torsions:
REMARK  status: ('A' for Active; 'I' for Inactive)
REMARK    1  A    between atoms: C_2  and  C_8
REMARK    2  A    between atoms: C_3  and  C_9
REMARK    3  A    between atoms: C_8  and  C_10
REMARK    4  A    between atoms: C_8  and  C_11
REMARK                            x       y       z     vdW  Elec       q    Type
REMARK                         _______ _______ _______ _____ _____    ______ ____
ROOT
ATOM      1  O   UNL     1       4.303 -13.786   1.422  0.00  0.00    +0.000 OA
ATOM      2  C   UNL     1       4.440 -12.353   1.267  0.00  0.00    +0.000 C 
ATOM      3  C   UNL     1       5.516 -14.153   0.722  0.00  0.00    +0.000 C 
ATOM      4  C   UNL     1       4.529 -12.221  -0.258  0.00  0.00    +0.000 C 
ATOM      5  C   UNL     1       5.813 -12.108   1.903  0.00  0.00    +0.000 C 
ATOM      6  C   UNL     1       5.290 -13.492  -0.642  0.00  0.00    +0.000 C 
ATOM      7  C   UNL     1       6.572 -13.380   1.519  0.00  0.00    +0.000 C 
ATOM      8  H   UNL     1       5.056 -11.315  -0.576  0.00  0.00    +0.000 HD
ATOM      9  H   UNL     1       3.558 -12.236  -0.759  0.00  0.00    +0.000 HD
ATOM     10  H   UNL     1       5.746 -12.044   2.995  0.00  0.00    +0.000 HD
ATOM     11  H   UNL     1       6.303 -11.202   1.536  0.00  0.00    +0.000 HD
ATOM     12  H   UNL     1       4.657 -14.113  -1.286  0.00  0.00    +0.000 HD
ATOM     13  H   UNL     1       6.222 -13.285  -1.177  0.00  0.00    +0.000 HD
ATOM     14  H   UNL     1       7.478 -13.175   0.941  0.00  0.00    +0.000 HD
ATOM     15  H   UNL     1       6.862 -13.919   2.429  0.00  0.00    +0.000 HD
ENDROOT
BRANCH   3  16
ATOM     16  C   UNL     1       5.727 -15.649   0.675  0.00  0.00    +0.000 C 
ATOM     17  H   UNL     1       4.845 -16.187   1.037  0.00  0.00    +0.000 HD
ATOM     18  H   UNL     1       5.945 -15.980  -0.346  0.00  0.00    +0.000 HD
ATOM     19  H   UNL     1       6.590 -15.940   1.283  0.00  0.00    +0.000 HD
ENDBRANCH   3  16
BRANCH   2  20
ATOM     20  C   UNL     1       3.302 -11.589   1.903  0.00  0.00    +0.000 C 
ATOM     21  H   UNL     1       3.715 -10.837   2.588  0.00  0.00    +0.000 HD
BRANCH  20  22
ATOM     22  C   UNL     1       2.453 -10.876   0.843  0.00  0.00    +0.000 C 
ATOM     23  H   UNL     1       1.852 -10.070   1.275  0.00  0.00    +0.000 HD
ATOM     24  H   UNL     1       3.098 -10.431   0.077  0.00  0.00    +0.000 HD
ATOM     25  H   UNL     1       1.779 -11.574   0.337  0.00  0.00    +0.000 HD
ENDBRANCH  20  22
BRANCH  20  26
ATOM     26  C   UNL     1       2.416 -12.515   2.746  0.00  0.00    +0.000 C 
ATOM     27  H   UNL     1       2.217 -12.114   3.744  0.00  0.00    +0.000 HD
ATOM     28  H   UNL     1       2.917 -13.479   2.887  0.00  0.00    +0.000 HD
ATOM     29  H   UNL     1       1.459 -12.719   2.256  0.00  0.00    +0.000 HD
ENDBRANCH  20  26
ENDBRANCH   2  20
TORSDOF 4
ENDMDL
MODEL 2
REMARK VINA RESULT:    -4.353     13.146     14.840
REMARK INTER + INTRA:          -5.190
REMARK INTER:                  -4.988
REMARK INTRA:                  -0.202
REMARK UNBOUND:                -0.201
REMARK  Name = 10106
REMARK  4 active torsions:
REMARK  status: ('A' for Active; 'I' for Inactive)
REMARK    1  A    between atoms: C_2  and  C_8
REMARK    2  A    between atoms: C_3  and  C_9
REMARK    3  A    between atoms: C_8  and  C_10
REMARK    4  A    between atoms: C_8  and  C_11
REMARK                            x       y       z     vdW  Elec       q    Type
REMARK                         _______ _______ _______ _____ _____    ______ ____
ROOT
ATOM      1  O   UNL     1      -4.977  -8.351  -8.475  0.00  0.00    +0.000 OA
ATOM      2  C   UNL     1      -4.774  -7.530  -9.651  0.00  0.00    +0.000 C 
ATOM      3  C   UNL     1      -3.950  -9.330  -8.767  0.00  0.00    +0.000 C 
ATOM      4  C   UNL     1      -4.971  -8.555 -10.774  0.00  0.00    +0.000 C 
ATOM      5  C   UNL     1      -3.290  -7.169  -9.516  0.00  0.00    +0.000 C 
ATOM      6  C   UNL     1      -4.389  -9.826 -10.150  0.00  0.00    +0.000 C 
ATOM      7  C   UNL     1      -2.709  -8.438  -8.892  0.00  0.00    +0.000 C 
ATOM      8  H   UNL     1      -4.455  -8.278 -11.699  0.00  0.00    +0.000 HD
ATOM      9  H   UNL     1      -6.020  -8.743 -11.019  0.00  0.00    +0.000 HD
ATOM     10  H   UNL     1      -3.141  -6.327  -8.830  0.00  0.00    +0.000 HD
ATOM     11  H   UNL     1      -2.819  -6.919 -10.471  0.00  0.00    +0.000 HD
ATOM     12  H   UNL     1      -5.176 -10.584 -10.070  0.00  0.00    +0.000 HD
ATOM     13  H   UNL     1      -3.565 -10.248 -10.734  0.00  0.00    +0.000 HD
ATOM     14  H   UNL     1      -1.920  -8.889  -9.501  0.00  0.00    +0.000 HD
ATOM     15  H   UNL     1      -2.287  -8.199  -7.909  0.00  0.00    +0.000 HD
ENDROOT
BRANCH   3  16
ATOM     16  C   UNL     1      -3.856 -10.403  -7.708  0.00  0.00    +0.000 C 
ATOM     17  H   UNL     1      -4.510 -10.184  -6.859  0.00  0.00    +0.000 HD
ATOM     18  H   UNL     1      -4.129 -11.381  -8.119  0.00  0.00    +0.000 HD
ATOM     19  H   UNL     1      -2.828 -10.501  -7.343  0.00  0.00    +0.000 HD
ENDBRANCH   3  16
BRANCH   2  20
ATOM     20  C   UNL     1      -5.712  -6.347  -9.701  0.00  0.00    +0.000 C 
ATOM     21  H   UNL     1      -5.157  -5.466 -10.048  0.00  0.00    +0.000 HD
BRANCH  20  22
ATOM     22  C   UNL     1      -6.877  -6.605 -10.664  0.00  0.00    +0.000 C 
ATOM     23  H   UNL     1      -6.564  -6.549 -11.711  0.00  0.00    +0.000 HD
ATOM     24  H   UNL     1      -7.293  -7.606 -10.498  0.00  0.00    +0.000 HD
ATOM     25  H   UNL     1      -7.688  -5.886 -10.510  0.00  0.00    +0.000 HD
ENDBRANCH  20  22
BRANCH  20  26
ATOM     26  C   UNL     1      -6.252  -6.008  -8.307  0.00  0.00    +0.000 C 
ATOM     27  H   UNL     1      -6.804  -5.064  -8.285  0.00  0.00    +0.000 HD
ATOM     28  H   UNL     1      -5.419  -5.903  -7.603  0.00  0.00    +0.000 HD
ATOM     29  H   UNL     1      -6.902  -6.799  -7.919  0.00  0.00    +0.000 HD
ENDBRANCH  20  26
ENDBRANCH   2  20
TORSDOF 4
ENDMDL
MODEL 3
REMARK VINA RESULT:    -4.302     25.068     25.846
REMARK INTER + INTRA:          -5.131
REMARK INTER:                  -4.959
REMARK INTRA:                  -0.172
REMARK UNBOUND:                -0.201
REMARK  Name = 10106
REMARK  4 active torsions:
REMARK  status: ('A' for Active; 'I' for Inactive)
REMARK    1  A    between atoms: C_2  and  C_8
REMARK    2  A    between atoms: C_3  and  C_9
REMARK    3  A    between atoms: C_8  and  C_10
REMARK    4  A    between atoms: C_8  and  C_11
REMARK                            x       y       z     vdW  Elec       q    Type
REMARK                         _______ _______ _______ _____ _____    ______ ____
ROOT
ATOM      1  O   UNL     1      17.609  10.466   2.400  0.00  0.00    +0.000 OA
ATOM      2  C   UNL     1      16.267   9.982   2.647  0.00  0.00    +0.000 C 
ATOM      3  C   UNL     1      18.080   9.307   1.669  0.00  0.00    +0.000 C 
ATOM      4  C   UNL     1      16.550   8.663   3.376  0.00  0.00    +0.000 C 
ATOM      5  C   UNL     1      15.776   9.706   1.221  0.00  0.00    +0.000 C 
ATOM      6  C   UNL     1      17.830   8.187   2.685  0.00  0.00    +0.000 C 
ATOM      7  C   UNL     1      17.056   9.231   0.531  0.00  0.00    +0.000 C 
ATOM      8  H   UNL     1      15.735   7.938   3.276  0.00  0.00    +0.000 HD
ATOM      9  H   UNL     1      16.760   8.785   4.441  0.00  0.00    +0.000 HD
ATOM     10  H   UNL     1      15.421  10.621   0.733  0.00  0.00    +0.000 HD
ATOM     11  H   UNL     1      14.976   8.961   1.176  0.00  0.00    +0.000 HD
ATOM     12  H   UNL     1      18.639   8.128   3.421  0.00  0.00    +0.000 HD
ATOM     13  H   UNL     1      17.721   7.203   2.217  0.00  0.00    +0.000 HD
ATOM     14  H   UNL     1      16.963   8.227   0.108  0.00  0.00    +0.000 HD
ATOM     15  H   UNL     1      17.309   9.922  -0.282  0.00  0.00    +0.000 HD
ENDROOT
BRANCH   3  16
ATOM     16  C   UNL     1      19.516   9.449   1.222  0.00  0.00    +0.000 C 
ATOM     17  H   UNL     1      19.879   8.532   0.749  0.00  0.00    +0.000 HD
ATOM     18  H   UNL     1      19.623  10.276   0.512  0.00  0.00    +0.000 HD
ATOM     19  H   UNL     1      20.167   9.687   2.071  0.00  0.00    +0.000 HD
ENDBRANCH   3  16
BRANCH   2  20
ATOM     20  C   UNL     1      15.429  10.968   3.426  0.00  0.00    +0.000 C 
ATOM     21  H   UNL     1      16.004  11.892   3.567  0.00  0.00    +0.000 HD
BRANCH  20  22
ATOM     22  C   UNL     1      14.132  11.305   2.680  0.00  0.00    +0.000 C 
ATOM     23  H   UNL     1      14.308  11.491   1.615  0.00  0.00    +0.000 HD
ATOM     24  H   UNL     1      13.424  10.473   2.756  0.00  0.00    +0.000 HD
ATOM     25  H   UNL     1      13.646  12.188   3.106  0.00  0.00    +0.000 HD
ENDBRANCH  20  22
BRANCH  20  26
ATOM     26  C   UNL     1      15.103  10.434   4.826  0.00  0.00    +0.000 C 
ATOM     27  H   UNL     1      15.184   9.345   4.892  0.00  0.00    +0.000 HD
ATOM     28  H   UNL     1      14.070  10.690   5.088  0.00  0.00    +0.000 HD
ATOM     29  H   UNL     1      15.748  10.878   5.591  0.00  0.00    +0.000 HD
ENDBRANCH  20  26
ENDBRANCH   2  20
TORSDOF 4
ENDMDL
MODEL 4
REMARK VINA RESULT:    -4.284     13.929     16.108
REMARK INTER + INTRA:          -5.111
REMARK INTER:                  -4.940
REMARK INTRA:                  -0.171
REMARK UNBOUND:                -0.201
REMARK  Name = 10106
REMARK  4 active torsions:
REMARK  status: ('A' for Active; 'I' for Inactive)
REMARK    1  A    between atoms: C_2  and  C_8
REMARK    2  A    between atoms: C_3  and  C_9
REMARK    3  A    between atoms: C_8  and  C_10
REMARK    4  A    between atoms: C_8  and  C_11
REMARK                            x       y       z     vdW  Elec       q    Type
REMARK                         _______ _______ _______ _____ _____    ______ ____
ROOT
ATOM      1  O   UNL     1      -5.537  -5.892  -8.598  0.00  0.00    +0.000 OA
ATOM      2  C   UNL     1      -5.026  -6.947  -9.447  0.00  0.00    +0.000 C 
ATOM      3  C   UNL     1      -6.915  -6.338  -8.576  0.00  0.00    +0.000 C 
ATOM      4  C   UNL     1      -5.914  -6.794 -10.688  0.00  0.00    +0.000 C 
ATOM      5  C   UNL     1      -5.430  -8.196  -8.656  0.00  0.00    +0.000 C 
ATOM      6  C   UNL     1      -7.248  -6.365 -10.072  0.00  0.00    +0.000 C 
ATOM      7  C   UNL     1      -6.762  -7.766  -8.040  0.00  0.00    +0.000 C 
ATOM      8  H   UNL     1      -6.007  -7.722 -11.262  0.00  0.00    +0.000 HD
ATOM      9  H   UNL     1      -5.583  -6.009 -11.372  0.00  0.00    +0.000 HD
ATOM     10  H   UNL     1      -4.715  -8.414  -7.854  0.00  0.00    +0.000 HD
ATOM     11  H   UNL     1      -5.527  -9.090  -9.280  0.00  0.00    +0.000 HD
ATOM     12  H   UNL     1      -7.512  -5.366 -10.439  0.00  0.00    +0.000 HD
ATOM     13  H   UNL     1      -8.069  -7.046 -10.316  0.00  0.00    +0.000 HD
ATOM     14  H   UNL     1      -7.593  -8.419  -8.325  0.00  0.00    +0.000 HD
ATOM     15  H   UNL     1      -6.678  -7.777  -6.948  0.00  0.00    +0.000 HD
ENDROOT
BRANCH   3  16
ATOM     16  C   UNL     1      -7.801  -5.440  -7.745  0.00  0.00    +0.000 C 
ATOM     17  H   UNL     1      -7.224  -4.899  -6.989  0.00  0.00    +0.000 HD
ATOM     18  H   UNL     1      -8.322  -4.713  -8.376  0.00  0.00    +0.000 HD
ATOM     19  H   UNL     1      -8.581  -6.021  -7.240  0.00  0.00    +0.000 HD
ENDBRANCH   3  16
BRANCH   2  20
ATOM     20  C   UNL     1      -3.544  -6.814  -9.709  0.00  0.00    +0.000 C 
ATOM     21  H   UNL     1      -3.169  -5.923  -9.190  0.00  0.00    +0.000 HD
BRANCH  20  22
ATOM     22  C   UNL     1      -2.779  -8.041  -9.199  0.00  0.00    +0.000 C 
ATOM     23  H   UNL     1      -1.760  -7.788  -8.889  0.00  0.00    +0.000 HD
ATOM     24  H   UNL     1      -3.290  -8.473  -8.332  0.00  0.00    +0.000 HD
ATOM     25  H   UNL     1      -2.721  -8.820  -9.965  0.00  0.00    +0.000 HD
ENDBRANCH  20  22
BRANCH  20  26
ATOM     26  C   UNL     1      -3.262  -6.605 -11.202  0.00  0.00    +0.000 C 
ATOM     27  H   UNL     1      -2.446  -7.234 -11.570  0.00  0.00    +0.000 HD
ATOM     28  H   UNL     1      -2.965  -5.565 -11.381  0.00  0.00    +0.000 HD
ATOM     29  H   UNL     1      -4.150  -6.795 -11.814  0.00  0.00    +0.000 HD
ENDBRANCH  20  26
ENDBRANCH   2  20
TORSDOF 4
ENDMDL
MODEL 5
REMARK VINA RESULT:    -4.256     24.791     26.033
REMARK INTER + INTRA:          -5.079
REMARK INTER:                  -4.895
REMARK INTRA:                  -0.184
REMARK UNBOUND:                -0.201
REMARK  Name = 10106
REMARK  4 active torsions:
REMARK  status: ('A' for Active; 'I' for Inactive)
REMARK    1  A    between atoms: C_2  and  C_8
REMARK    2  A    between atoms: C_3  and  C_9
REMARK    3  A    between atoms: C_8  and  C_10
REMARK    4  A    between atoms: C_8  and  C_11
REMARK                            x       y       z     vdW  Elec       q    Type
REMARK                         _______ _______ _______ _____ _____    ______ ____
ROOT
ATOM      1  O   UNL     1       4.853  13.573   0.987  0.00  0.00    +0.000 OA
ATOM      2  C   UNL     1       5.259  13.056   2.277  0.00  0.00    +0.000 C 
ATOM      3  C   UNL     1       6.012  13.119   0.246  0.00  0.00    +0.000 C 
ATOM      4  C   UNL     1       6.621  13.738   2.462  0.00  0.00    +0.000 C 
ATOM      5  C   UNL     1       5.449  11.568   1.962  0.00  0.00    +0.000 C 
ATOM      6  C   UNL     1       7.151  13.781   1.028  0.00  0.00    +0.000 C 
ATOM      7  C   UNL     1       5.979  11.612   0.528  0.00  0.00    +0.000 C 
ATOM      8  H   UNL     1       7.287  13.183   3.131  0.00  0.00    +0.000 HD
ATOM      9  H   UNL     1       6.552  14.764   2.834  0.00  0.00    +0.000 HD
ATOM     10  H   UNL     1       4.496  11.028   1.979  0.00  0.00    +0.000 HD
ATOM     11  H   UNL     1       6.139  11.067   2.647  0.00  0.00    +0.000 HD
ATOM     12  H   UNL     1       7.289  14.825   0.723  0.00  0.00    +0.000 HD
ATOM     13  H   UNL     1       8.108  13.262   0.911  0.00  0.00    +0.000 HD
ATOM     14  H   UNL     1       6.959  11.137   0.422  0.00  0.00    +0.000 HD
ATOM     15  H   UNL     1       5.276  11.095  -0.135  0.00  0.00    +0.000 HD
ENDROOT
BRANCH   3  16
ATOM     16  C   UNL     1       5.945  13.491  -1.217  0.00  0.00    +0.000 C 
ATOM     17  H   UNL     1       5.362  12.762  -1.788  0.00  0.00    +0.000 HD
ATOM     18  H   UNL     1       5.494  14.480  -1.347  0.00  0.00    +0.000 HD
ATOM     19  H   UNL     1       6.949  13.552  -1.650  0.00  0.00    +0.000 HD
ENDBRANCH   3  16
BRANCH   2  20
ATOM     20  C   UNL     1       4.251  13.351   3.363  0.00  0.00    +0.000 C 
ATOM     21  H   UNL     1       4.403  14.377   3.722  0.00  0.00    +0.000 HD
BRANCH  20  22
ATOM     22  C   UNL     1       2.817  13.219   2.838  0.00  0.00    +0.000 C 
ATOM     23  H   UNL     1       2.117  13.851   3.395  0.00  0.00    +0.000 HD
ATOM     24  H   UNL     1       2.769  13.522   1.786  0.00  0.00    +0.000 HD
ATOM     25  H   UNL     1       2.465  12.184   2.897  0.00  0.00    +0.000 HD
ENDBRANCH  20  22
BRANCH  20  26
ATOM     26  C   UNL     1       4.453  12.428   4.572  0.00  0.00    +0.000 C 
ATOM     27  H   UNL     1       4.558  11.377   4.287  0.00  0.00    +0.000 HD
ATOM     28  H   UNL     1       3.582  12.490   5.234  0.00  0.00    +0.000 HD
ATOM     29  H   UNL     1       5.327  12.717   5.163  0.00  0.00    +0.000 HD
ENDBRANCH  20  26
ENDBRANCH   2  20
TORSDOF 4
ENDMDL
MODEL 6
REMARK VINA RESULT:    -4.235     25.326     26.754
REMARK INTER + INTRA:          -5.054
REMARK INTER:                  -4.857
REMARK INTRA:                  -0.197
REMARK UNBOUND:                -0.201
REMARK  Name = 10106
REMARK  4 active torsions:
REMARK  status: ('A' for Active; 'I' for Inactive)
REMARK    1  A    between atoms: C_2  and  C_8
REMARK    2  A    between atoms: C_3  and  C_9
REMARK    3  A    between atoms: C_8  and  C_10
REMARK    4  A    between atoms: C_8  and  C_11
REMARK                            x       y       z     vdW  Elec       q    Type
REMARK                         _______ _______ _______ _____ _____    ______ ____
ROOT
ATOM      1  O   UNL     1       7.166  13.087  -3.047  0.00  0.00    +0.000 OA
ATOM      2  C   UNL     1       8.356  13.284  -3.848  0.00  0.00    +0.000 C 
ATOM      3  C   UNL     1       7.842  12.819  -1.795  0.00  0.00    +0.000 C 
ATOM      4  C   UNL     1       9.092  11.957  -3.629  0.00  0.00    +0.000 C 
ATOM      5  C   UNL     1       9.055  14.412  -3.082  0.00  0.00    +0.000 C 
ATOM      6  C   UNL     1       8.729  11.630  -2.178  0.00  0.00    +0.000 C 
ATOM      7  C   UNL     1       8.691  14.085  -1.633  0.00  0.00    +0.000 C 
ATOM      8  H   UNL     1      10.174  12.042  -3.772  0.00  0.00    +0.000 HD
ATOM      9  H   UNL     1       8.733  11.144  -4.264  0.00  0.00    +0.000 HD
ATOM     10  H   UNL     1       8.643  15.394  -3.345  0.00  0.00    +0.000 HD
ATOM     11  H   UNL     1      10.136  14.440  -3.245  0.00  0.00    +0.000 HD
ATOM     12  H   UNL     1       8.169  10.688  -2.148  0.00  0.00    +0.000 HD
ATOM     13  H   UNL     1       9.607  11.525  -1.532  0.00  0.00    +0.000 HD
ATOM     14  H   UNL     1       9.569  13.931  -0.999  0.00  0.00    +0.000 HD
ATOM     15  H   UNL     1       8.105  14.909  -1.210  0.00  0.00    +0.000 HD
ENDROOT
BRANCH   3  16
ATOM     16  C   UNL     1       6.878  12.553  -0.662  0.00  0.00    +0.000 C 
ATOM     17  H   UNL     1       6.015  13.224  -0.707  0.00  0.00    +0.000 HD
ATOM     18  H   UNL     1       6.519  11.519  -0.690  0.00  0.00    +0.000 HD
ATOM     19  H   UNL     1       7.371  12.681   0.307  0.00  0.00    +0.000 HD
ENDBRANCH   3  16
BRANCH   2  20
ATOM     20  C   UNL     1       8.038  13.600  -5.291  0.00  0.00    +0.000 C 
ATOM     21  H   UNL     1       8.408  14.606  -5.526  0.00  0.00    +0.000 HD
BRANCH  20  22
ATOM     22  C   UNL     1       8.707  12.596  -6.238  0.00  0.00    +0.000 C 
ATOM     23  H   UNL     1       9.503  13.059  -6.830  0.00  0.00    +0.000 HD
ATOM     24  H   UNL     1       9.156  11.776  -5.667  0.00  0.00    +0.000 HD
ATOM     25  H   UNL     1       7.980  12.154  -6.927  0.00  0.00    +0.000 HD
ENDBRANCH  20  22
BRANCH  20  26
ATOM     26  C   UNL     1       6.524  13.619  -5.534  0.00  0.00    +0.000 C 
ATOM     27  H   UNL     1       5.948  13.644  -4.604  0.00  0.00    +0.000 HD
ATOM     28  H   UNL     1       6.223  12.710  -6.067  0.00  0.00    +0.000 HD
ATOM     29  H   UNL     1       6.222  14.469  -6.153  0.00  0.00    +0.000 HD
ENDBRANCH  20  26
ENDBRANCH   2  20
TORSDOF 4
ENDMDL
MODEL 7
REMARK VINA RESULT:    -4.221     25.311     26.535
REMARK INTER + INTRA:          -5.038
REMARK INTER:                  -4.838
REMARK INTRA:                  -0.201
REMARK UNBOUND:                -0.201
REMARK  Name = 10106
REMARK  4 active torsions:
REMARK  status: ('A' for Active; 'I' for Inactive)
REMARK    1  A    between atoms: C_2  and  C_8
REMARK    2  A    between atoms: C_3  and  C_9
REMARK    3  A    between atoms: C_8  and  C_10
REMARK    4  A    between atoms: C_8  and  C_11
REMARK                            x       y       z     vdW  Elec       q    Type
REMARK                         _______ _______ _______ _____ _____    ______ ____
ROOT
ATOM      1  O   UNL     1      16.116  11.642   2.328  0.00  0.00    +0.000 OA
ATOM      2  C   UNL     1      15.404  10.382   2.363  0.00  0.00    +0.000 C 
ATOM      3  C   UNL     1      15.275  12.343   3.277  0.00  0.00    +0.000 C 
ATOM      4  C   UNL     1      13.988  10.823   1.972  0.00  0.00    +0.000 C 
ATOM      5  C   UNL     1      15.461  10.042   3.856  0.00  0.00    +0.000 C 
ATOM      6  C   UNL     1      13.897  12.207   2.618  0.00  0.00    +0.000 C 
ATOM      7  C   UNL     1      15.372  11.426   4.501  0.00  0.00    +0.000 C 
ATOM      8  H   UNL     1      13.214  10.144   2.344  0.00  0.00    +0.000 HD
ATOM      9  H   UNL     1      13.844  10.936   0.895  0.00  0.00    +0.000 HD
ATOM     10  H   UNL     1      16.417   9.578   4.128  0.00  0.00    +0.000 HD
ATOM     11  H   UNL     1      14.655   9.377   4.178  0.00  0.00    +0.000 HD
ATOM     12  H   UNL     1      13.753  12.963   1.838  0.00  0.00    +0.000 HD
ATOM     13  H   UNL     1      13.072  12.291   3.333  0.00  0.00    +0.000 HD
ATOM     14  H   UNL     1      14.517  11.525   5.177  0.00  0.00    +0.000 HD
ATOM     15  H   UNL     1      16.285  11.619   5.075  0.00  0.00    +0.000 HD
ENDROOT
BRANCH   3  16
ATOM     16  C   UNL     1      15.729  13.765   3.512  0.00  0.00    +0.000 C 
ATOM     17  H   UNL     1      15.043  14.296   4.180  0.00  0.00    +0.000 HD
ATOM     18  H   UNL     1      16.732  13.786   3.950  0.00  0.00    +0.000 HD
ATOM     19  H   UNL     1      15.794  14.314   2.567  0.00  0.00    +0.000 HD
ENDBRANCH   3  16
BRANCH   2  20
ATOM     20  C   UNL     1      16.017   9.344   1.452  0.00  0.00    +0.000 C 
ATOM     21  H   UNL     1      15.218   8.853   0.881  0.00  0.00    +0.000 HD
BRANCH  20  22
ATOM     22  C   UNL     1      17.003   9.984   0.468  0.00  0.00    +0.000 C 
ATOM     23  H   UNL     1      16.719   9.803  -0.574  0.00  0.00    +0.000 HD
ATOM     24  H   UNL     1      17.037  11.069   0.616  0.00  0.00    +0.000 HD
ATOM     25  H   UNL     1      18.019   9.603   0.617  0.00  0.00    +0.000 HD
ENDBRANCH  20  22
BRANCH  20  26
ATOM     26  C   UNL     1      16.722   8.246   2.258  0.00  0.00    +0.000 C 
ATOM     27  H   UNL     1      16.466   7.239   1.914  0.00  0.00    +0.000 HD
ATOM     28  H   UNL     1      16.418   8.306   3.309  0.00  0.00    +0.000 HD
ATOM     29  H   UNL     1      17.810   8.356   2.230  0.00  0.00    +0.000 HD
ENDBRANCH  20  26
ENDBRANCH   2  20
TORSDOF 4
ENDMDL
MODEL 8
REMARK VINA RESULT:    -4.078     10.367     12.162
REMARK INTER + INTRA:          -4.875
REMARK INTER:                  -4.674
REMARK INTRA:                  -0.201
REMARK UNBOUND:                -0.201
REMARK  Name = 10106
REMARK  4 active torsions:
REMARK  status: ('A' for Active; 'I' for Inactive)
REMARK    1  A    between atoms: C_2  and  C_8
REMARK    2  A    between atoms: C_3  and  C_9
REMARK    3  A    between atoms: C_8  and  C_10
REMARK    4  A    between atoms: C_8  and  C_11
REMARK                            x       y       z     vdW  Elec       q    Type
REMARK                         _______ _______ _______ _____ _____    ______ ____
ROOT
ATOM      1  O   UNL     1       8.519 -10.652  -9.742  0.00  0.00    +0.000 OA
ATOM      2  C   UNL     1       9.372 -11.763  -9.372  0.00  0.00    +0.000 C 
ATOM      3  C   UNL     1       9.149  -9.660  -8.895  0.00  0.00    +0.000 C 
ATOM      4  C   UNL     1       9.178 -11.800  -7.852  0.00  0.00    +0.000 C 
ATOM      5  C   UNL     1      10.759 -11.209  -9.717  0.00  0.00    +0.000 C 
ATOM      6  C   UNL     1       9.022 -10.315  -7.515  0.00  0.00    +0.000 C 
ATOM      7  C   UNL     1      10.601  -9.725  -9.382  0.00  0.00    +0.000 C 
ATOM      8  H   UNL     1      10.025 -12.254  -7.326  0.00  0.00    +0.000 HD
ATOM      9  H   UNL     1       8.271 -12.321  -7.536  0.00  0.00    +0.000 HD
ATOM     10  H   UNL     1      10.982 -11.316 -10.785  0.00  0.00    +0.000 HD
ATOM     11  H   UNL     1      11.566 -11.682  -9.150  0.00  0.00    +0.000 HD
ATOM     12  H   UNL     1       8.029 -10.144  -7.083  0.00  0.00    +0.000 HD
ATOM     13  H   UNL     1       9.771  -9.959  -6.802  0.00  0.00    +0.000 HD
ATOM     14  H   UNL     1      11.318  -9.381  -8.631  0.00  0.00    +0.000 HD
ATOM     15  H   UNL     1      10.746  -9.130 -10.291  0.00  0.00    +0.000 HD
ENDROOT
BRANCH   3  16
ATOM     16  C   UNL     1       8.500  -8.301  -9.015  0.00  0.00    +0.000 C 
ATOM     17  H   UNL     1       8.259  -8.065 -10.056  0.00  0.00    +0.000 HD
ATOM     18  H   UNL     1       7.581  -8.254  -8.422  0.00  0.00    +0.000 HD
ATOM     19  H   UNL     1       9.159  -7.519  -8.622  0.00  0.00    +0.000 HD
ENDBRANCH   3  16
BRANCH   2  20
ATOM     20  C   UNL     1       9.003 -13.041 -10.089  0.00  0.00    +0.000 C 
ATOM     21  H   UNL     1       8.966 -13.860  -9.360  0.00  0.00    +0.000 HD
BRANCH  20  22
ATOM     22  C   UNL     1       7.632 -12.921 -10.765  0.00  0.00    +0.000 C 
ATOM     23  H   UNL     1       7.374 -11.880 -10.986  0.00  0.00    +0.000 HD
ATOM     24  H   UNL     1       7.628 -13.470 -11.713  0.00  0.00    +0.000 HD
ATOM     25  H   UNL     1       6.841 -13.345 -10.139  0.00  0.00    +0.000 HD
ENDBRANCH  20  22
BRANCH  20  26
ATOM     26  C   UNL     1      10.067 -13.421 -11.126  0.00  0.00    +0.000 C 
ATOM     27  H   UNL     1      10.417 -14.451 -11.014  0.00  0.00    +0.000 HD
ATOM     28  H   UNL     1      10.944 -12.775 -11.010  0.00  0.00    +0.000 HD
ATOM     29  H   UNL     1       9.702 -13.287 -12.150  0.00  0.00    +0.000 HD
ENDBRANCH  20  26
ENDBRANCH   2  20
TORSDOF 4
ENDMDL
MODEL 9
REMARK VINA RESULT:    -4.065     10.389     11.749
REMARK INTER + INTRA:          -4.860
REMARK INTER:                  -4.661
REMARK INTRA:                  -0.199
REMARK UNBOUND:                -0.201
REMARK  Name = 10106
REMARK  4 active torsions:
REMARK  status: ('A' for Active; 'I' for Inactive)
REMARK    1  A    between atoms: C_2  and  C_8
REMARK    2  A    between atoms: C_3  and  C_9
REMARK    3  A    between atoms: C_8  and  C_10
REMARK    4  A    between atoms: C_8  and  C_11
REMARK                            x       y       z     vdW  Elec       q    Type
REMARK                         _______ _______ _______ _____ _____    ______ ____
ROOT
ATOM      1  O   UNL     1       8.493 -11.068  -9.861  0.00  0.00    +0.000 OA
ATOM      2  C   UNL     1       9.447 -10.654  -8.853  0.00  0.00    +0.000 C 
ATOM      3  C   UNL     1       8.907 -12.454  -9.933  0.00  0.00    +0.000 C 
ATOM      4  C   UNL     1      10.775 -11.037  -9.517  0.00  0.00    +0.000 C 
ATOM      5  C   UNL     1       9.123 -11.625  -7.712  0.00  0.00    +0.000 C 
ATOM      6  C   UNL     1      10.393 -12.309 -10.278  0.00  0.00    +0.000 C 
ATOM      7  C   UNL     1       8.741 -12.895  -8.474  0.00  0.00    +0.000 C 
ATOM      8  H   UNL     1      11.576 -11.217  -8.792  0.00  0.00    +0.000 HD
ATOM      9  H   UNL     1      11.135 -10.300 -10.238  0.00  0.00    +0.000 HD
ATOM     10  H   UNL     1       8.263 -11.285  -7.124  0.00  0.00    +0.000 HD
ATOM     11  H   UNL     1       9.963 -11.784  -7.029  0.00  0.00    +0.000 HD
ATOM     12  H   UNL     1      10.538 -12.146 -11.352  0.00  0.00    +0.000 HD
ATOM     13  H   UNL     1      10.988 -13.178  -9.982  0.00  0.00    +0.000 HD
ATOM     14  H   UNL     1       9.370 -13.752  -8.214  0.00  0.00    +0.000 HD
ATOM     15  H   UNL     1       7.700 -13.154  -8.250  0.00  0.00    +0.000 HD
ENDROOT
BRANCH   3  16
ATOM     16  C   UNL     1       8.098 -13.249 -10.931  0.00  0.00    +0.000 C 
ATOM     17  H   UNL     1       8.651 -13.399 -11.864  0.00  0.00    +0.000 HD
ATOM     18  H   UNL     1       7.827 -14.228 -10.523  0.00  0.00    +0.000 HD
ATOM     19  H   UNL     1       7.155 -12.741 -11.161  0.00  0.00    +0.000 HD
ENDBRANCH   3  16
BRANCH   2  20
ATOM     20  C   UNL     1       9.316  -9.192  -8.497  0.00  0.00    +0.000 C 
ATOM     21  H   UNL     1       9.149  -9.101  -7.416  0.00  0.00    +0.000 HD
BRANCH  20  22
ATOM     22  C   UNL     1      10.586  -8.416  -8.866  0.00  0.00    +0.000 C 
ATOM     23  H   UNL     1      10.417  -7.724  -9.696  0.00  0.00    +0.000 HD
ATOM     24  H   UNL     1      10.932  -7.826  -8.010  0.00  0.00    +0.000 HD
ATOM     25  H   UNL     1      11.400  -9.094  -9.144  0.00  0.00    +0.000 HD
ENDBRANCH  20  22
BRANCH  20  26
ATOM     26  C   UNL     1       8.100  -8.560  -9.185  0.00  0.00    +0.000 C 
ATOM     27  H   UNL     1       7.875  -9.021 -10.151  0.00  0.00    +0.000 HD
ATOM     28  H   UNL     1       8.293  -7.499  -9.379  0.00  0.00    +0.000 HD
ATOM     29  H   UNL     1       7.205  -8.614  -8.558  0.00  0.00    +0.000 HD
ENDBRANCH  20  26
ENDBRANCH   2  20
TORSDOF 4
ENDMDL
MODEL 10
REMARK VINA RESULT:    -4.064      9.398     10.730
REMARK INTER + INTRA:          -4.858
REMARK INTER:                  -4.685
REMARK INTRA:                  -0.173
REMARK UNBOUND:                -0.201
REMARK  Name = 10106
REMARK  4 active torsions:
REMARK  status: ('A' for Active; 'I' for Inactive)
REMARK    1  A    between atoms: C_2  and  C_8
REMARK    2  A    between atoms: C_3  and  C_9
REMARK    3  A    between atoms: C_8  and  C_10
REMARK    4  A    between atoms: C_8  and  C_11
REMARK                            x       y       z     vdW  Elec       q    Type
REMARK                         _______ _______ _______ _____ _____    ______ ____
ROOT
ATOM      1  O   UNL     1      11.800  -8.884  -4.290  0.00  0.00    +0.000 OA
ATOM      2  C   UNL     1      12.586  -9.604  -5.270  0.00  0.00    +0.000 C 
ATOM      3  C   UNL     1      12.018  -9.798  -3.187  0.00  0.00    +0.000 C 
ATOM      4  C   UNL     1      11.907 -10.979  -5.251  0.00  0.00    +0.000 C 
ATOM      5  C   UNL     1      13.949  -9.676  -4.573  0.00  0.00    +0.000 C 
ATOM      6  C   UNL     1      11.507 -11.115  -3.780  0.00  0.00    +0.000 C 
ATOM      7  C   UNL     1      13.549  -9.811  -3.103  0.00  0.00    +0.000 C 
ATOM      8  H   UNL     1      12.573 -11.787  -5.572  0.00  0.00    +0.000 HD
ATOM      9  H   UNL     1      11.000 -11.031  -5.860  0.00  0.00    +0.000 HD
ATOM     10  H   UNL     1      14.520  -8.750  -4.709  0.00  0.00    +0.000 HD
ATOM     11  H   UNL     1      14.566 -10.511  -4.917  0.00  0.00    +0.000 HD
ATOM     12  H   UNL     1      10.416 -11.189  -3.706  0.00  0.00    +0.000 HD
ATOM     13  H   UNL     1      11.942 -11.997  -3.300  0.00  0.00    +0.000 HD
ATOM     14  H   UNL     1      13.942 -10.719  -2.637  0.00  0.00    +0.000 HD
ATOM     15  H   UNL     1      13.927  -8.948  -2.543  0.00  0.00    +0.000 HD
ENDROOT
BRANCH   3  16
ATOM     16  C   UNL     1      11.318  -9.356  -1.923  0.00  0.00    +0.000 C 
ATOM     17  H   UNL     1      10.285  -9.056  -2.124  0.00  0.00    +0.000 HD
ATOM     18  H   UNL     1      11.311 -10.160  -1.180  0.00  0.00    +0.000 HD
ATOM     19  H   UNL     1      11.844  -8.514  -1.460  0.00  0.00    +0.000 HD
ENDBRANCH   3  16
BRANCH   2  20
ATOM     20  C   UNL     1      12.597  -8.923  -6.618  0.00  0.00    +0.000 C 
ATOM     21  H   UNL     1      12.956  -7.893  -6.494  0.00  0.00    +0.000 HD
BRANCH  20  22
ATOM     22  C   UNL     1      13.523  -9.652  -7.599  0.00  0.00    +0.000 C 
ATOM     23  H   UNL     1      14.478  -9.132  -7.725  0.00  0.00    +0.000 HD
ATOM     24  H   UNL     1      13.743 -10.661  -7.234  0.00  0.00    +0.000 HD
ATOM     25  H   UNL     1      13.057  -9.756  -8.584  0.00  0.00    +0.000 HD
ENDBRANCH  20  22
BRANCH  20  26
ATOM     26  C   UNL     1      11.183  -8.830  -7.204  0.00  0.00    +0.000 C 
ATOM     27  H   UNL     1      10.510  -9.594  -6.805  0.00  0.00    +0.000 HD
ATOM     28  H   UNL     1      11.222  -8.979  -8.289  0.00  0.00    +0.000 HD
ATOM     29  H   UNL     1      10.735  -7.847  -7.031  0.00  0.00    +0.000 HD
ENDBRANCH  20  26
ENDBRANCH   2  20
TORSDOF 4
ENDMDL
