MODEL 1
REMARK VINA RESULT:    -4.371      0.000      0.000
REMARK INTER + INTRA:          -6.796
REMARK INTER:                  -6.462
REMARK INTRA:                  -0.334
REMARK UNBOUND:                -0.252
REMARK  Name = 8175
REMARK  9 active torsions:
REMARK  status: ('A' for Active; 'I' for Inactive)
REMARK    1  A    between atoms: C_2  and  C_3
REMARK    2  A    between atoms: C_2  and  C_4
REMARK    3  A    between atoms: C_3  and  C_5
REMARK    4  A    between atoms: C_4  and  C_6
REMARK    5  A    between atoms: C_5  and  C_7
REMARK    6  A    between atoms: C_6  and  C_8
REMARK    7  A    between atoms: C_7  and  C_9
REMARK    8  A    between atoms: C_8  and  C_10
REMARK    9  A    between atoms: C_9  and  C_11
REMARK                            x       y       z     vdW  Elec       q    Type
REMARK                         _______ _______ _______ _____ _____    ______ ____
ROOT
ATOM      1  C   UNL     1       5.515 -13.167  -0.864  0.00  0.00    +0.000 C 
ATOM      2  H   UNL     1       5.171 -14.199  -0.735  0.00  0.00    +0.000 HD
ATOM      3  H   UNL     1       5.623 -12.992  -1.941  0.00  0.00    +0.000 HD
ENDROOT
BRANCH   1   4
ATOM      4  C   UNL     1       6.872 -12.985  -0.176  0.00  0.00    +0.000 C 
ATOM      5  H   UNL     1       7.520 -13.840  -0.403  0.00  0.00    +0.000 HD
ATOM      6  H   UNL     1       6.733 -12.964   0.912  0.00  0.00    +0.000 HD
BRANCH   4   7
ATOM      7  C   UNL     1       7.552 -11.691  -0.628  0.00  0.00    +0.000 C 
ATOM      8  H   UNL     1       7.235 -11.451  -1.650  0.00  0.00    +0.000 HD
ATOM      9  H   UNL     1       7.215 -10.865   0.012  0.00  0.00    +0.000 HD
BRANCH   7  10
ATOM     10  C   UNL     1       9.081 -11.762  -0.583  0.00  0.00    +0.000 C 
ATOM     11  H   UNL     1       9.421 -11.567   0.442  0.00  0.00    +0.000 HD
ATOM     12  H   UNL     1       9.400 -12.783  -0.824  0.00  0.00    +0.000 HD
BRANCH  10  13
ATOM     13  C   UNL     1       9.761 -10.778  -1.532  0.00  0.00    +0.000 C 
ATOM     14  H   UNL     1      10.571 -11.272  -2.079  0.00  0.00    +0.000 HD
ATOM     15  H   UNL     1       9.039 -10.394  -2.262  0.00  0.00    +0.000 HD
BRANCH  13  17
ATOM     16  O   UNL     1      10.241  -9.376   0.393  0.00  0.00    +0.000 OA
ATOM     17  C   UNL     1      10.353  -9.592  -0.809  0.00  0.00    +0.000 C 
ATOM     18  H   UNL     1      10.928  -8.899  -1.449  0.00  0.00    +0.000 HD
ENDBRANCH  13  17
ENDBRANCH  10  13
ENDBRANCH   7  10
ENDBRANCH   4   7
ENDBRANCH   1   4
BRANCH   1  19
ATOM     19  C   UNL     1       4.472 -12.202  -0.294  0.00  0.00    +0.000 C 
ATOM     20  H   UNL     1       3.485 -12.446  -0.706  0.00  0.00    +0.000 HD
ATOM     21  H   UNL     1       4.709 -11.183  -0.623  0.00  0.00    +0.000 HD
BRANCH  19  22
ATOM     22  C   UNL     1       4.391 -12.230   1.235  0.00  0.00    +0.000 C 
ATOM     23  H   UNL     1       4.519 -13.261   1.585  0.00  0.00    +0.000 HD
ATOM     24  H   UNL     1       5.228 -11.651   1.645  0.00  0.00    +0.000 HD
BRANCH  22  25
ATOM     25  C   UNL     1       3.078 -11.668   1.784  0.00  0.00    +0.000 C 
ATOM     26  H   UNL     1       3.278 -11.066   2.678  0.00  0.00    +0.000 HD
ATOM     27  H   UNL     1       2.420 -12.491   2.086  0.00  0.00    +0.000 HD
BRANCH  25  28
ATOM     28  C   UNL     1       2.365 -10.814   0.746  0.00  0.00    +0.000 C 
ATOM     29  H   UNL     1       2.860 -10.908  -0.226  0.00  0.00    +0.000 HD
ATOM     30  H   UNL     1       1.323 -11.129   0.629  0.00  0.00    +0.000 HD
ATOM     31  H   UNL     1       2.376  -9.758   1.032  0.00  0.00    +0.000 HD
ENDBRANCH  25  28
ENDBRANCH  22  25
ENDBRANCH  19  22
ENDBRANCH   1  19
TORSDOF 9
ENDMDL
MODEL 2
REMARK VINA RESULT:    -4.357      2.513      5.998
REMARK INTER + INTRA:          -6.775
REMARK INTER:                  -6.281
REMARK INTRA:                  -0.493
REMARK UNBOUND:                -0.252
REMARK  Name = 8175
REMARK  9 active torsions:
REMARK  status: ('A' for Active; 'I' for Inactive)
REMARK    1  A    between atoms: C_2  and  C_3
REMARK    2  A    between atoms: C_2  and  C_4
REMARK    3  A    between atoms: C_3  and  C_5
REMARK    4  A    between atoms: C_4  and  C_6
REMARK    5  A    between atoms: C_5  and  C_7
REMARK    6  A    between atoms: C_6  and  C_8
REMARK    7  A    between atoms: C_7  and  C_9
REMARK    8  A    between atoms: C_8  and  C_10
REMARK    9  A    between atoms: C_9  and  C_11
REMARK                            x       y       z     vdW  Elec       q    Type
REMARK                         _______ _______ _______ _____ _____    ______ ____
ROOT
ATOM      1  C   UNL     1       8.100 -10.594   0.023  0.00  0.00    +0.000 C 
ATOM      2  H   UNL     1       8.671 -10.889   0.911  0.00  0.00    +0.000 HD
ATOM      3  H   UNL     1       7.080 -10.364   0.355  0.00  0.00    +0.000 HD
ENDROOT
BRANCH   1   4
ATOM      4  C   UNL     1       8.066 -11.752  -0.978  0.00  0.00    +0.000 C 
ATOM      5  H   UNL     1       9.088 -12.003  -1.289  0.00  0.00    +0.000 HD
ATOM      6  H   UNL     1       7.520 -11.445  -1.878  0.00  0.00    +0.000 HD
BRANCH   4   7
ATOM      7  C   UNL     1       7.396 -12.988  -0.373  0.00  0.00    +0.000 C 
ATOM      8  H   UNL     1       8.062 -13.853  -0.482  0.00  0.00    +0.000 HD
ATOM      9  H   UNL     1       7.256 -12.830   0.704  0.00  0.00    +0.000 HD
BRANCH   7  10
ATOM     10  C   UNL     1       6.043 -13.316  -1.008  0.00  0.00    +0.000 C 
ATOM     11  H   UNL     1       6.142 -13.295  -2.101  0.00  0.00    +0.000 HD
ATOM     12  H   UNL     1       5.761 -14.343  -0.744  0.00  0.00    +0.000 HD
BRANCH  10  13
ATOM     13  C   UNL     1       4.929 -12.359  -0.588  0.00  0.00    +0.000 C 
ATOM     14  H   UNL     1       5.184 -11.332  -0.866  0.00  0.00    +0.000 HD
ATOM     15  H   UNL     1       3.991 -12.626  -1.087  0.00  0.00    +0.000 HD
BRANCH  13  17
ATOM     16  O   UNL     1       4.397 -13.385   1.548  0.00  0.00    +0.000 OA
ATOM     17  C   UNL     1       4.677 -12.383   0.901  0.00  0.00    +0.000 C 
ATOM     18  H   UNL     1       4.770 -11.403   1.402  0.00  0.00    +0.000 HD
ENDBRANCH  13  17
ENDBRANCH  10  13
ENDBRANCH   7  10
ENDBRANCH   4   7
ENDBRANCH   1   4
BRANCH   1  19
ATOM     19  C   UNL     1       8.727  -9.343  -0.598  0.00  0.00    +0.000 C 
ATOM     20  H   UNL     1       8.267  -8.449  -0.160  0.00  0.00    +0.000 HD
ATOM     21  H   UNL     1       8.499  -9.324  -1.670  0.00  0.00    +0.000 HD
BRANCH  19  22
ATOM     22  C   UNL     1      10.244  -9.265  -0.406  0.00  0.00    +0.000 C 
ATOM     23  H   UNL     1      10.478  -8.459   0.299  0.00  0.00    +0.000 HD
ATOM     24  H   UNL     1      10.592 -10.198   0.054  0.00  0.00    +0.000 HD
BRANCH  22  25
ATOM     25  C   UNL     1      11.010  -9.035  -1.711  0.00  0.00    +0.000 C 
ATOM     26  H   UNL     1      11.980  -8.574  -1.494  0.00  0.00    +0.000 HD
ATOM     27  H   UNL     1      10.454  -8.339  -2.350  0.00  0.00    +0.000 HD
BRANCH  25  28
ATOM     28  C   UNL     1      11.224 -10.339  -2.464  0.00  0.00    +0.000 C 
ATOM     29  H   UNL     1      10.441 -10.474  -3.217  0.00  0.00    +0.000 HD
ATOM     30  H   UNL     1      12.192 -10.342  -2.975  0.00  0.00    +0.000 HD
ATOM     31  H   UNL     1      11.192 -11.196  -1.784  0.00  0.00    +0.000 HD
ENDBRANCH  25  28
ENDBRANCH  22  25
ENDBRANCH  19  22
ENDBRANCH   1  19
TORSDOF 9
ENDMDL
MODEL 3
REMARK VINA RESULT:    -4.328     23.456     24.191
REMARK INTER + INTRA:          -6.730
REMARK INTER:                  -6.404
REMARK INTRA:                  -0.326
REMARK UNBOUND:                -0.252
REMARK  Name = 8175
REMARK  9 active torsions:
REMARK  status: ('A' for Active; 'I' for Inactive)
REMARK    1  A    between atoms: C_2  and  C_3
REMARK    2  A    between atoms: C_2  and  C_4
REMARK    3  A    between atoms: C_3  and  C_5
REMARK    4  A    between atoms: C_4  and  C_6
REMARK    5  A    between atoms: C_5  and  C_7
REMARK    6  A    between atoms: C_6  and  C_8
REMARK    7  A    between atoms: C_7  and  C_9
REMARK    8  A    between atoms: C_8  and  C_10
REMARK    9  A    between atoms: C_9  and  C_11
REMARK                            x       y       z     vdW  Elec       q    Type
REMARK                         _______ _______ _______ _____ _____    ______ ____
ROOT
ATOM      1  C   UNL     1       6.912  13.121  -1.509  0.00  0.00    +0.000 C 
ATOM      2  H   UNL     1       6.426  12.384  -2.158  0.00  0.00    +0.000 HD
ATOM      3  H   UNL     1       6.780  14.104  -1.977  0.00  0.00    +0.000 HD
ENDROOT
BRANCH   1   4
ATOM      4  C   UNL     1       8.405  12.803  -1.392  0.00  0.00    +0.000 C 
ATOM      5  H   UNL     1       8.631  12.452  -0.377  0.00  0.00    +0.000 HD
ATOM      6  H   UNL     1       8.990  13.716  -1.557  0.00  0.00    +0.000 HD
BRANCH   4   7
ATOM      7  C   UNL     1       8.825  11.738  -2.408  0.00  0.00    +0.000 C 
ATOM      8  H   UNL     1       9.860  11.434  -2.209  0.00  0.00    +0.000 HD
ATOM      9  H   UNL     1       8.201  10.846  -2.273  0.00  0.00    +0.000 HD
BRANCH   7  10
ATOM     10  C   UNL     1       8.712  12.208  -3.860  0.00  0.00    +0.000 C 
ATOM     11  H   UNL     1       8.166  11.455  -4.442  0.00  0.00    +0.000 HD
ATOM     12  H   UNL     1       8.107  13.122  -3.896  0.00  0.00    +0.000 HD
BRANCH  10  13
ATOM     13  C   UNL     1      10.065  12.467  -4.520  0.00  0.00    +0.000 C 
ATOM     14  H   UNL     1      10.457  13.443  -4.219  0.00  0.00    +0.000 HD
ATOM     15  H   UNL     1      10.787  11.700  -4.219  0.00  0.00    +0.000 HD
BRANCH  13  17
ATOM     16  O   UNL     1       8.951  12.322  -6.674  0.00  0.00    +0.000 OA
ATOM     17  C   UNL     1       9.986  12.451  -6.028  0.00  0.00    +0.000 C 
ATOM     18  H   UNL     1      10.954  12.575  -6.544  0.00  0.00    +0.000 HD
ENDBRANCH  13  17
ENDBRANCH  10  13
ENDBRANCH   7  10
ENDBRANCH   4   7
ENDBRANCH   1   4
BRANCH   1  19
ATOM     19  C   UNL     1       6.236  13.119  -0.135  0.00  0.00    +0.000 C 
ATOM     20  H   UNL     1       5.257  13.609  -0.208  0.00  0.00    +0.000 HD
ATOM     21  H   UNL     1       6.838  13.716   0.561  0.00  0.00    +0.000 HD
BRANCH  19  22
ATOM     22  C   UNL     1       6.045  11.715   0.445  0.00  0.00    +0.000 C 
ATOM     23  H   UNL     1       5.350  11.153  -0.191  0.00  0.00    +0.000 HD
ATOM     24  H   UNL     1       7.004  11.183   0.412  0.00  0.00    +0.000 HD
BRANCH  22  25
ATOM     25  C   UNL     1       5.524  11.717   1.884  0.00  0.00    +0.000 C 
ATOM     26  H   UNL     1       5.721  10.746   2.351  0.00  0.00    +0.000 HD
ATOM     27  H   UNL     1       4.438  11.866   1.885  0.00  0.00    +0.000 HD
BRANCH  25  28
ATOM     28  C   UNL     1       6.178  12.818   2.707  0.00  0.00    +0.000 C 
ATOM     29  H   UNL     1       7.244  12.887   2.466  0.00  0.00    +0.000 HD
ATOM     30  H   UNL     1       5.719  13.789   2.498  0.00  0.00    +0.000 HD
ATOM     31  H   UNL     1       6.084  12.615   3.778  0.00  0.00    +0.000 HD
ENDBRANCH  25  28
ENDBRANCH  22  25
ENDBRANCH  19  22
ENDBRANCH   1  19
TORSDOF 9
ENDMDL
MODEL 4
REMARK VINA RESULT:    -4.251      3.270      7.487
REMARK INTER + INTRA:          -6.615
REMARK INTER:                  -6.263
REMARK INTRA:                  -0.352
REMARK UNBOUND:                -0.252
REMARK  Name = 8175
REMARK  9 active torsions:
REMARK  status: ('A' for Active; 'I' for Inactive)
REMARK    1  A    between atoms: C_2  and  C_3
REMARK    2  A    between atoms: C_2  and  C_4
REMARK    3  A    between atoms: C_3  and  C_5
REMARK    4  A    between atoms: C_4  and  C_6
REMARK    5  A    between atoms: C_5  and  C_7
REMARK    6  A    between atoms: C_6  and  C_8
REMARK    7  A    between atoms: C_7  and  C_9
REMARK    8  A    between atoms: C_8  and  C_10
REMARK    9  A    between atoms: C_9  and  C_11
REMARK                            x       y       z     vdW  Elec       q    Type
REMARK                         _______ _______ _______ _____ _____    ______ ____
ROOT
ATOM      1  C   UNL     1      11.453 -10.015  -2.725  0.00  0.00    +0.000 C 
ATOM      2  H   UNL     1      10.781  -9.939  -3.587  0.00  0.00    +0.000 HD
ATOM      3  H   UNL     1      11.325 -11.018  -2.300  0.00  0.00    +0.000 HD
ENDROOT
BRANCH   1   4
ATOM      4  C   UNL     1      11.075  -8.960  -1.681  0.00  0.00    +0.000 C 
ATOM      5  H   UNL     1      10.519  -8.146  -2.160  0.00  0.00    +0.000 HD
ATOM      6  H   UNL     1      11.986  -8.523  -1.253  0.00  0.00    +0.000 HD
BRANCH   4   7
ATOM      7  C   UNL     1      10.229  -9.570  -0.561  0.00  0.00    +0.000 C 
ATOM      8  H   UNL     1      10.881  -9.856   0.273  0.00  0.00    +0.000 HD
ATOM      9  H   UNL     1       9.538  -8.809  -0.177  0.00  0.00    +0.000 HD
BRANCH   7  10
ATOM     10  C   UNL     1       9.423 -10.793  -1.007  0.00  0.00    +0.000 C 
ATOM     11  H   UNL     1       9.451 -10.864  -2.102  0.00  0.00    +0.000 HD
ATOM     12  H   UNL     1       9.908 -11.701  -0.627  0.00  0.00    +0.000 HD
BRANCH  10  13
ATOM     13  C   UNL     1       7.969 -10.762  -0.544  0.00  0.00    +0.000 C 
ATOM     14  H   UNL     1       7.752  -9.821  -0.027  0.00  0.00    +0.000 HD
ATOM     15  H   UNL     1       7.295 -10.843  -1.403  0.00  0.00    +0.000 HD
BRANCH  13  17
ATOM     16  O   UNL     1       6.770 -11.848   1.268  0.00  0.00    +0.000 OA
ATOM     17  C   UNL     1       7.638 -11.891   0.404  0.00  0.00    +0.000 C 
ATOM     18  H   UNL     1       8.243 -12.804   0.265  0.00  0.00    +0.000 HD
ENDBRANCH  13  17
ENDBRANCH  10  13
ENDBRANCH   7  10
ENDBRANCH   4   7
ENDBRANCH   1   4
BRANCH   1  19
ATOM     19  C   UNL     1      12.902  -9.841  -3.188  0.00  0.00    +0.000 C 
ATOM     20  H   UNL     1      13.492 -10.711  -2.876  0.00  0.00    +0.000 HD
ATOM     21  H   UNL     1      13.336  -8.967  -2.686  0.00  0.00    +0.000 HD
BRANCH  19  22
ATOM     22  C   UNL     1      13.039  -9.667  -4.703  0.00  0.00    +0.000 C 
ATOM     23  H   UNL     1      14.073  -9.389  -4.943  0.00  0.00    +0.000 HD
ATOM     24  H   UNL     1      12.851 -10.632  -5.189  0.00  0.00    +0.000 HD
BRANCH  22  25
ATOM     25  C   UNL     1      12.086  -8.620  -5.284  0.00  0.00    +0.000 C 
ATOM     26  H   UNL     1      12.626  -7.682  -5.456  0.00  0.00    +0.000 HD
ATOM     27  H   UNL     1      11.286  -8.408  -4.565  0.00  0.00    +0.000 HD
BRANCH  25  28
ATOM     28  C   UNL     1      11.469  -9.097  -6.589  0.00  0.00    +0.000 C 
ATOM     29  H   UNL     1      11.630  -8.355  -7.378  0.00  0.00    +0.000 HD
ATOM     30  H   UNL     1      11.918 -10.041  -6.914  0.00  0.00    +0.000 HD
ATOM     31  H   UNL     1      10.390  -9.248  -6.482  0.00  0.00    +0.000 HD
ENDBRANCH  25  28
ENDBRANCH  22  25
ENDBRANCH  19  22
ENDBRANCH   1  19
TORSDOF 9
ENDMDL
MODEL 5
REMARK VINA RESULT:    -4.241     17.352     18.781
REMARK INTER + INTRA:          -6.600
REMARK INTER:                  -5.908
REMARK INTRA:                  -0.693
REMARK UNBOUND:                -0.252
REMARK  Name = 8175
REMARK  9 active torsions:
REMARK  status: ('A' for Active; 'I' for Inactive)
REMARK    1  A    between atoms: C_2  and  C_3
REMARK    2  A    between atoms: C_2  and  C_4
REMARK    3  A    between atoms: C_3  and  C_5
REMARK    4  A    between atoms: C_4  and  C_6
REMARK    5  A    between atoms: C_5  and  C_7
REMARK    6  A    between atoms: C_6  and  C_8
REMARK    7  A    between atoms: C_7  and  C_9
REMARK    8  A    between atoms: C_8  and  C_10
REMARK    9  A    between atoms: C_9  and  C_11
REMARK                            x       y       z     vdW  Elec       q    Type
REMARK                         _______ _______ _______ _____ _____    ______ ____
ROOT
ATOM      1  C   UNL     1      -0.264  -7.451  16.660  0.00  0.00    +0.000 C 
ATOM      2  H   UNL     1       0.707  -7.573  16.166  0.00  0.00    +0.000 HD
ATOM      3  H   UNL     1      -0.954  -8.170  16.203  0.00  0.00    +0.000 HD
ENDROOT
BRANCH   1   4
ATOM      4  C   UNL     1      -0.782  -6.027  16.436  0.00  0.00    +0.000 C 
ATOM      5  H   UNL     1      -1.395  -5.717  17.291  0.00  0.00    +0.000 HD
ATOM      6  H   UNL     1      -1.427  -6.005  15.549  0.00  0.00    +0.000 HD
BRANCH   4   7
ATOM      7  C   UNL     1       0.374  -5.041  16.249  0.00  0.00    +0.000 C 
ATOM      8  H   UNL     1       0.011  -4.020  16.419  0.00  0.00    +0.000 HD
ATOM      9  H   UNL     1       1.140  -5.236  17.010  0.00  0.00    +0.000 HD
BRANCH   7  10
ATOM     10  C   UNL     1       1.019  -5.119  14.863  0.00  0.00    +0.000 C 
ATOM     11  H   UNL     1       1.098  -6.171  14.560  0.00  0.00    +0.000 HD
ATOM     12  H   UNL     1       0.359  -4.637  14.132  0.00  0.00    +0.000 HD
BRANCH  10  13
ATOM     13  C   UNL     1       2.402  -4.475  14.802  0.00  0.00    +0.000 C 
ATOM     14  H   UNL     1       3.075  -4.946  15.526  0.00  0.00    +0.000 HD
ATOM     15  H   UNL     1       2.834  -4.597  13.803  0.00  0.00    +0.000 HD
BRANCH  13  17
ATOM     16  O   UNL     1       1.585  -2.196  14.602  0.00  0.00    +0.000 OA
ATOM     17  C   UNL     1       2.366  -2.996  15.106  0.00  0.00    +0.000 C 
ATOM     18  H   UNL     1       3.111  -2.657  15.848  0.00  0.00    +0.000 HD
ENDBRANCH  13  17
ENDBRANCH  10  13
ENDBRANCH   7  10
ENDBRANCH   4   7
ENDBRANCH   1   4
BRANCH   1  19
ATOM     19  C   UNL     1      -0.123  -7.760  18.153  0.00  0.00    +0.000 C 
ATOM     20  H   UNL     1      -0.882  -8.496  18.446  0.00  0.00    +0.000 HD
ATOM     21  H   UNL     1      -0.327  -6.848  18.728  0.00  0.00    +0.000 HD
BRANCH  19  22
ATOM     22  C   UNL     1       1.260  -8.295  18.535  0.00  0.00    +0.000 C 
ATOM     23  H   UNL     1       1.144  -9.120  19.247  0.00  0.00    +0.000 HD
ATOM     24  H   UNL     1       1.737  -8.715  17.641  0.00  0.00    +0.000 HD
BRANCH  22  25
ATOM     25  C   UNL     1       2.178  -7.230  19.138  0.00  0.00    +0.000 C 
ATOM     26  H   UNL     1       2.758  -7.663  19.961  0.00  0.00    +0.000 HD
ATOM     27  H   UNL     1       1.576  -6.415  19.558  0.00  0.00    +0.000 HD
BRANCH  25  28
ATOM     28  C   UNL     1       3.127  -6.661  18.094  0.00  0.00    +0.000 C 
ATOM     29  H   UNL     1       2.808  -5.655  17.801  0.00  0.00    +0.000 HD
ATOM     30  H   UNL     1       4.146  -6.593  18.486  0.00  0.00    +0.000 HD
ATOM     31  H   UNL     1       3.144  -7.286  17.196  0.00  0.00    +0.000 HD
ENDBRANCH  25  28
ENDBRANCH  22  25
ENDBRANCH  19  22
ENDBRANCH   1  19
TORSDOF 9
ENDMDL
MODEL 6
REMARK VINA RESULT:    -4.221      4.261      6.979
REMARK INTER + INTRA:          -6.570
REMARK INTER:                  -5.818
REMARK INTRA:                  -0.753
REMARK UNBOUND:                -0.252
REMARK  Name = 8175
REMARK  9 active torsions:
REMARK  status: ('A' for Active; 'I' for Inactive)
REMARK    1  A    between atoms: C_2  and  C_3
REMARK    2  A    between atoms: C_2  and  C_4
REMARK    3  A    between atoms: C_3  and  C_5
REMARK    4  A    between atoms: C_4  and  C_6
REMARK    5  A    between atoms: C_5  and  C_7
REMARK    6  A    between atoms: C_6  and  C_8
REMARK    7  A    between atoms: C_7  and  C_9
REMARK    8  A    between atoms: C_8  and  C_10
REMARK    9  A    between atoms: C_9  and  C_11
REMARK                            x       y       z     vdW  Elec       q    Type
REMARK                         _______ _______ _______ _____ _____    ______ ____
ROOT
ATOM      1  C   UNL     1      12.169  -9.388  -4.315  0.00  0.00    +0.000 C 
ATOM      2  H   UNL     1      13.053  -8.957  -4.797  0.00  0.00    +0.000 HD
ATOM      3  H   UNL     1      11.356  -8.660  -4.416  0.00  0.00    +0.000 HD
ENDROOT
BRANCH   1   4
ATOM      4  C   UNL     1      12.459  -9.633  -2.830  0.00  0.00    +0.000 C 
ATOM      5  H   UNL     1      13.309  -9.017  -2.512  0.00  0.00    +0.000 HD
ATOM      6  H   UNL     1      12.744 -10.682  -2.679  0.00  0.00    +0.000 HD
BRANCH   4   7
ATOM      7  C   UNL     1      11.238  -9.308  -1.967  0.00  0.00    +0.000 C 
ATOM      8  H   UNL     1      11.554  -8.717  -1.099  0.00  0.00    +0.000 HD
ATOM      9  H   UNL     1      10.547  -8.680  -2.544  0.00  0.00    +0.000 HD
BRANCH   7  10
ATOM     10  C   UNL     1      10.490 -10.552  -1.481  0.00  0.00    +0.000 C 
ATOM     11  H   UNL     1      10.432 -11.281  -2.299  0.00  0.00    +0.000 HD
ATOM     12  H   UNL     1      11.071 -11.031  -0.683  0.00  0.00    +0.000 HD
BRANCH  10  13
ATOM     13  C   UNL     1       9.081 -10.252  -0.975  0.00  0.00    +0.000 C 
ATOM     14  H   UNL     1       8.386 -10.157  -1.815  0.00  0.00    +0.000 HD
ATOM     15  H   UNL     1       8.729 -11.063  -0.329  0.00  0.00    +0.000 HD
BRANCH  13  17
ATOM     16  O   UNL     1       8.372  -7.978  -0.502  0.00  0.00    +0.000 OA
ATOM     17  C   UNL     1       9.012  -8.971  -0.178  0.00  0.00    +0.000 C 
ATOM     18  H   UNL     1       9.591  -8.980   0.763  0.00  0.00    +0.000 HD
ENDBRANCH  13  17
ENDBRANCH  10  13
ENDBRANCH   7  10
ENDBRANCH   4   7
ENDBRANCH   1   4
BRANCH   1  19
ATOM     19  C   UNL     1      11.779 -10.687  -5.024  0.00  0.00    +0.000 C 
ATOM     20  H   UNL     1      11.954 -10.582  -6.102  0.00  0.00    +0.000 HD
ATOM     21  H   UNL     1      10.703 -10.857  -4.893  0.00  0.00    +0.000 HD
BRANCH  19  22
ATOM     22  C   UNL     1      12.545 -11.911  -4.515  0.00  0.00    +0.000 C 
ATOM     23  H   UNL     1      13.353 -12.149  -5.218  0.00  0.00    +0.000 HD
ATOM     24  H   UNL     1      13.022 -11.659  -3.560  0.00  0.00    +0.000 HD
BRANCH  22  25
ATOM     25  C   UNL     1      11.661 -13.145  -4.323  0.00  0.00    +0.000 C 
ATOM     26  H   UNL     1      11.963 -13.679  -3.414  0.00  0.00    +0.000 HD
ATOM     27  H   UNL     1      11.796 -13.834  -5.165  0.00  0.00    +0.000 HD
BRANCH  25  28
ATOM     28  C   UNL     1      10.192 -12.763  -4.222  0.00  0.00    +0.000 C 
ATOM     29  H   UNL     1       9.990 -12.287  -3.257  0.00  0.00    +0.000 HD
ATOM     30  H   UNL     1       9.915 -12.059  -5.013  0.00  0.00    +0.000 HD
ATOM     31  H   UNL     1       9.550 -13.645  -4.307  0.00  0.00    +0.000 HD
ENDBRANCH  25  28
ENDBRANCH  22  25
ENDBRANCH  19  22
ENDBRANCH   1  19
TORSDOF 9
ENDMDL
MODEL 7
REMARK VINA RESULT:    -4.152     14.191     15.737
REMARK INTER + INTRA:          -6.467
REMARK INTER:                  -5.578
REMARK INTRA:                  -0.889
REMARK UNBOUND:                -0.252
REMARK  Name = 8175
REMARK  9 active torsions:
REMARK  status: ('A' for Active; 'I' for Inactive)
REMARK    1  A    between atoms: C_2  and  C_3
REMARK    2  A    between atoms: C_2  and  C_4
REMARK    3  A    between atoms: C_3  and  C_5
REMARK    4  A    between atoms: C_4  and  C_6
REMARK    5  A    between atoms: C_5  and  C_7
REMARK    6  A    between atoms: C_6  and  C_8
REMARK    7  A    between atoms: C_7  and  C_9
REMARK    8  A    between atoms: C_8  and  C_10
REMARK    9  A    between atoms: C_9  and  C_11
REMARK                            x       y       z     vdW  Elec       q    Type
REMARK                         _______ _______ _______ _____ _____    ______ ____
ROOT
ATOM      1  C   UNL     1      -5.103  -6.648  -9.810  0.00  0.00    +0.000 C 
ATOM      2  H   UNL     1      -5.346  -6.083 -10.717  0.00  0.00    +0.000 HD
ATOM      3  H   UNL     1      -5.473  -7.671  -9.954  0.00  0.00    +0.000 HD
ENDROOT
BRANCH   1   4
ATOM      4  C   UNL     1      -5.802  -6.014  -8.603  0.00  0.00    +0.000 C 
ATOM      5  H   UNL     1      -6.233  -5.048  -8.891  0.00  0.00    +0.000 HD
ATOM      6  H   UNL     1      -5.067  -5.819  -7.813  0.00  0.00    +0.000 HD
BRANCH   4   7
ATOM      7  C   UNL     1      -6.904  -6.926  -8.060  0.00  0.00    +0.000 C 
ATOM      8  H   UNL     1      -6.984  -6.792  -6.974  0.00  0.00    +0.000 HD
ATOM      9  H   UNL     1      -7.867  -6.623  -8.490  0.00  0.00    +0.000 HD
BRANCH   7  10
ATOM     10  C   UNL     1      -6.669  -8.409  -8.363  0.00  0.00    +0.000 C 
ATOM     11  H   UNL     1      -7.632  -8.890  -8.576  0.00  0.00    +0.000 HD
ATOM     12  H   UNL     1      -6.071  -8.498  -9.278  0.00  0.00    +0.000 HD
BRANCH  10  13
ATOM     13  C   UNL     1      -5.975  -9.156  -7.227  0.00  0.00    +0.000 C 
ATOM     14  H   UNL     1      -6.237 -10.219  -7.252  0.00  0.00    +0.000 HD
ATOM     15  H   UNL     1      -4.887  -9.070  -7.324  0.00  0.00    +0.000 HD
BRANCH  13  17
ATOM     16  O   UNL     1      -5.784  -8.906  -4.819  0.00  0.00    +0.000 OA
ATOM     17  C   UNL     1      -6.355  -8.623  -5.866  0.00  0.00    +0.000 C 
ATOM     18  H   UNL     1      -7.210  -7.924  -5.865  0.00  0.00    +0.000 HD
ENDBRANCH  13  17
ENDBRANCH  10  13
ENDBRANCH   7  10
ENDBRANCH   4   7
ENDBRANCH   1   4
BRANCH   1  19
ATOM     19  C   UNL     1      -3.585  -6.680  -9.617  0.00  0.00    +0.000 C 
ATOM     20  H   UNL     1      -3.318  -6.105  -8.721  0.00  0.00    +0.000 HD
ATOM     21  H   UNL     1      -3.105  -6.180 -10.467  0.00  0.00    +0.000 HD
BRANCH  19  22
ATOM     22  C   UNL     1      -3.019  -8.097  -9.483  0.00  0.00    +0.000 C 
ATOM     23  H   UNL     1      -1.923  -8.047  -9.459  0.00  0.00    +0.000 HD
ATOM     24  H   UNL     1      -3.337  -8.516  -8.521  0.00  0.00    +0.000 HD
BRANCH  22  25
ATOM     25  C   UNL     1      -3.458  -9.035 -10.609  0.00  0.00    +0.000 C 
ATOM     26  H   UNL     1      -2.618  -9.217 -11.289  0.00  0.00    +0.000 HD
ATOM     27  H   UNL     1      -4.256  -8.564 -11.195  0.00  0.00    +0.000 HD
BRANCH  25  28
ATOM     28  C   UNL     1      -3.962 -10.361 -10.059  0.00  0.00    +0.000 C 
ATOM     29  H   UNL     1      -5.007 -10.517 -10.346  0.00  0.00    +0.000 HD
ATOM     30  H   UNL     1      -3.373 -11.197 -10.450  0.00  0.00    +0.000 HD
ATOM     31  H   UNL     1      -3.903 -10.381  -8.966  0.00  0.00    +0.000 HD
ENDBRANCH  25  28
ENDBRANCH  22  25
ENDBRANCH  19  22
ENDBRANCH   1  19
TORSDOF 9
ENDMDL
MODEL 8
REMARK VINA RESULT:    -4.095      5.102      7.481
REMARK INTER + INTRA:          -6.382
REMARK INTER:                  -5.912
REMARK INTRA:                  -0.470
REMARK UNBOUND:                -0.252
REMARK  Name = 8175
REMARK  9 active torsions:
REMARK  status: ('A' for Active; 'I' for Inactive)
REMARK    1  A    between atoms: C_2  and  C_3
REMARK    2  A    between atoms: C_2  and  C_4
REMARK    3  A    between atoms: C_3  and  C_5
REMARK    4  A    between atoms: C_4  and  C_6
REMARK    5  A    between atoms: C_5  and  C_7
REMARK    6  A    between atoms: C_6  and  C_8
REMARK    7  A    between atoms: C_7  and  C_9
REMARK    8  A    between atoms: C_8  and  C_10
REMARK    9  A    between atoms: C_9  and  C_11
REMARK                            x       y       z     vdW  Elec       q    Type
REMARK                         _______ _______ _______ _____ _____    ______ ____
ROOT
ATOM      1  C   UNL     1      12.359  -9.626  -2.980  0.00  0.00    +0.000 C 
ATOM      2  H   UNL     1      12.050  -8.878  -3.718  0.00  0.00    +0.000 HD
ATOM      3  H   UNL     1      12.453  -9.113  -2.016  0.00  0.00    +0.000 HD
ENDROOT
BRANCH   1   4
ATOM      4  C   UNL     1      13.714 -10.218  -3.381  0.00  0.00    +0.000 C 
ATOM      5  H   UNL     1      13.564 -11.181  -3.885  0.00  0.00    +0.000 HD
ATOM      6  H   UNL     1      14.311 -10.413  -2.482  0.00  0.00    +0.000 HD
BRANCH   4   7
ATOM      7  C   UNL     1      14.480  -9.269  -4.306  0.00  0.00    +0.000 C 
ATOM      8  H   UNL     1      14.017  -8.276  -4.271  0.00  0.00    +0.000 HD
ATOM      9  H   UNL     1      15.506  -9.155  -3.934  0.00  0.00    +0.000 HD
BRANCH   7  10
ATOM     10  C   UNL     1      14.529  -9.747  -5.760  0.00  0.00    +0.000 C 
ATOM     11  H   UNL     1      15.573  -9.932  -6.043  0.00  0.00    +0.000 HD
ATOM     12  H   UNL     1      14.014 -10.712  -5.838  0.00  0.00    +0.000 HD
BRANCH  10  13
ATOM     13  C   UNL     1      13.910  -8.758  -6.743  0.00  0.00    +0.000 C 
ATOM     14  H   UNL     1      14.033  -7.732  -6.382  0.00  0.00    +0.000 HD
ATOM     15  H   UNL     1      14.398  -8.838  -7.721  0.00  0.00    +0.000 HD
BRANCH  13  17
ATOM     16  O   UNL     1      11.545  -8.576  -6.216  0.00  0.00    +0.000 OA
ATOM     17  C   UNL     1      12.433  -8.996  -6.951  0.00  0.00    +0.000 C 
ATOM     18  H   UNL     1      12.181  -9.589  -7.848  0.00  0.00    +0.000 HD
ENDBRANCH  13  17
ENDBRANCH  10  13
ENDBRANCH   7  10
ENDBRANCH   4   7
ENDBRANCH   1   4
BRANCH   1  19
ATOM     19  C   UNL     1      11.289 -10.716  -2.874  0.00  0.00    +0.000 C 
ATOM     20  H   UNL     1      11.774 -11.697  -2.799  0.00  0.00    +0.000 HD
ATOM     21  H   UNL     1      10.696 -10.726  -3.796  0.00  0.00    +0.000 HD
BRANCH  19  22
ATOM     22  C   UNL     1      10.353 -10.532  -1.676  0.00  0.00    +0.000 C 
ATOM     23  H   UNL     1       9.320 -10.726  -1.993  0.00  0.00    +0.000 HD
ATOM     24  H   UNL     1      10.596 -11.286  -0.917  0.00  0.00    +0.000 HD
BRANCH  22  25
ATOM     25  C   UNL     1      10.437  -9.141  -1.046  0.00  0.00    +0.000 C 
ATOM     26  H   UNL     1      10.849  -8.430  -1.771  0.00  0.00    +0.000 HD
ATOM     27  H   UNL     1      11.120  -9.163  -0.188  0.00  0.00    +0.000 HD
BRANCH  25  28
ATOM     28  C   UNL     1       9.071  -8.659  -0.583  0.00  0.00    +0.000 C 
ATOM     29  H   UNL     1       9.150  -8.186   0.402  0.00  0.00    +0.000 HD
ATOM     30  H   UNL     1       8.657  -7.924  -1.280  0.00  0.00    +0.000 HD
ATOM     31  H   UNL     1       8.366  -9.493  -0.503  0.00  0.00    +0.000 HD
ENDBRANCH  25  28
ENDBRANCH  22  25
ENDBRANCH  19  22
ENDBRANCH   1  19
TORSDOF 9
ENDMDL
MODEL 9
REMARK VINA RESULT:    -4.063     16.072     19.713
REMARK INTER + INTRA:          -6.335
REMARK INTER:                  -6.083
REMARK INTRA:                  -0.252
REMARK UNBOUND:                -0.252
REMARK  Name = 8175
REMARK  9 active torsions:
REMARK  status: ('A' for Active; 'I' for Inactive)
REMARK    1  A    between atoms: C_2  and  C_3
REMARK    2  A    between atoms: C_2  and  C_4
REMARK    3  A    between atoms: C_3  and  C_5
REMARK    4  A    between atoms: C_4  and  C_6
REMARK    5  A    between atoms: C_5  and  C_7
REMARK    6  A    between atoms: C_6  and  C_8
REMARK    7  A    between atoms: C_7  and  C_9
REMARK    8  A    between atoms: C_8  and  C_10
REMARK    9  A    between atoms: C_9  and  C_11
REMARK                            x       y       z     vdW  Elec       q    Type
REMARK                         _______ _______ _______ _____ _____    ______ ____
ROOT
ATOM      1  C   UNL     1      -8.676 -15.440   7.380  0.00  0.00    +0.000 C 
ATOM      2  H   UNL     1      -7.932 -16.232   7.236  0.00  0.00    +0.000 HD
ATOM      3  H   UNL     1      -8.736 -15.243   8.457  0.00  0.00    +0.000 HD
ENDROOT
BRANCH   1   4
ATOM      4  C   UNL     1     -10.040 -15.913   6.866  0.00  0.00    +0.000 C 
ATOM      5  H   UNL     1     -10.316 -16.853   7.359  0.00  0.00    +0.000 HD
ATOM      6  H   UNL     1      -9.977 -16.116   5.790  0.00  0.00    +0.000 HD
BRANCH   4   7
ATOM      7  C   UNL     1     -11.122 -14.862   7.124  0.00  0.00    +0.000 C 
ATOM      8  H   UNL     1     -10.703 -14.051   7.732  0.00  0.00    +0.000 HD
ATOM      9  H   UNL     1     -11.426 -14.417   6.168  0.00  0.00    +0.000 HD
BRANCH   7  10
ATOM     10  C   UNL     1     -12.360 -15.426   7.826  0.00  0.00    +0.000 C 
ATOM     11  H   UNL     1     -13.214 -15.386   7.138  0.00  0.00    +0.000 HD
ATOM     12  H   UNL     1     -12.194 -16.486   8.050  0.00  0.00    +0.000 HD
BRANCH  10  13
ATOM     13  C   UNL     1     -12.717 -14.683   9.111  0.00  0.00    +0.000 C 
ATOM     14  H   UNL     1     -12.184 -15.115   9.964  0.00  0.00    +0.000 HD
ATOM     15  H   UNL     1     -12.437 -13.628   9.031  0.00  0.00    +0.000 HD
BRANCH  13  17
ATOM     16  O   UNL     1     -14.689 -14.528  10.523  0.00  0.00    +0.000 OA
ATOM     17  C   UNL     1     -14.195 -14.740   9.420  0.00  0.00    +0.000 C 
ATOM     18  H   UNL     1     -14.840 -14.985   8.558  0.00  0.00    +0.000 HD
ENDBRANCH  13  17
ENDBRANCH  10  13
ENDBRANCH   7  10
ENDBRANCH   4   7
ENDBRANCH   1   4
BRANCH   1  19
ATOM     19  C   UNL     1      -8.221 -14.171   6.655  0.00  0.00    +0.000 C 
ATOM     20  H   UNL     1      -9.022 -13.422   6.693  0.00  0.00    +0.000 HD
ATOM     21  H   UNL     1      -8.056 -14.404   5.596  0.00  0.00    +0.000 HD
BRANCH  19  22
ATOM     22  C   UNL     1      -6.944 -13.562   7.240  0.00  0.00    +0.000 C 
ATOM     23  H   UNL     1      -7.132 -12.514   7.504  0.00  0.00    +0.000 HD
ATOM     24  H   UNL     1      -6.698 -14.083   8.174  0.00  0.00    +0.000 HD
BRANCH  22  25
ATOM     25  C   UNL     1      -5.745 -13.638   6.293  0.00  0.00    +0.000 C 
ATOM     26  H   UNL     1      -5.470 -14.686   6.127  0.00  0.00    +0.000 HD
ATOM     27  H   UNL     1      -4.880 -13.143   6.749  0.00  0.00    +0.000 HD
BRANCH  25  28
ATOM     28  C   UNL     1      -6.051 -12.976   4.958  0.00  0.00    +0.000 C 
ATOM     29  H   UNL     1      -6.833 -12.219   5.082  0.00  0.00    +0.000 HD
ATOM     30  H   UNL     1      -5.162 -12.483   4.552  0.00  0.00    +0.000 HD
ATOM     31  H   UNL     1      -6.403 -13.710   4.227  0.00  0.00    +0.000 HD
ENDBRANCH  25  28
ENDBRANCH  22  25
ENDBRANCH  19  22
ENDBRANCH   1  19
TORSDOF 9
ENDMDL
MODEL 10
REMARK VINA RESULT:    -4.017     15.168     17.343
REMARK INTER + INTRA:          -6.264
REMARK INTER:                  -5.326
REMARK INTRA:                  -0.939
REMARK UNBOUND:                -0.252
REMARK  Name = 8175
REMARK  9 active torsions:
REMARK  status: ('A' for Active; 'I' for Inactive)
REMARK    1  A    between atoms: C_2  and  C_3
REMARK    2  A    between atoms: C_2  and  C_4
REMARK    3  A    between atoms: C_3  and  C_5
REMARK    4  A    between atoms: C_4  and  C_6
REMARK    5  A    between atoms: C_5  and  C_7
REMARK    6  A    between atoms: C_6  and  C_8
REMARK    7  A    between atoms: C_7  and  C_9
REMARK    8  A    between atoms: C_8  and  C_10
REMARK    9  A    between atoms: C_9  and  C_11
REMARK                            x       y       z     vdW  Elec       q    Type
REMARK                         _______ _______ _______ _____ _____    ______ ____
ROOT
ATOM      1  C   UNL     1       0.887  -7.327  18.122  0.00  0.00    +0.000 C 
ATOM      2  H   UNL     1       0.590  -6.493  18.768  0.00  0.00    +0.000 HD
ATOM      3  H   UNL     1       0.610  -8.253  18.639  0.00  0.00    +0.000 HD
ENDROOT
BRANCH   1   4
ATOM      4  C   UNL     1       2.403  -7.294  17.901  0.00  0.00    +0.000 C 
ATOM      5  H   UNL     1       2.907  -7.834  18.711  0.00  0.00    +0.000 HD
ATOM      6  H   UNL     1       2.757  -6.257  17.932  0.00  0.00    +0.000 HD
BRANCH   4   7
ATOM      7  C   UNL     1       2.779  -7.920  16.556  0.00  0.00    +0.000 C 
ATOM      8  H   UNL     1       3.152  -8.939  16.721  0.00  0.00    +0.000 HD
ATOM      9  H   UNL     1       1.878  -8.009  15.936  0.00  0.00    +0.000 HD
BRANCH   7  10
ATOM     10  C   UNL     1       3.834  -7.120  15.788  0.00  0.00    +0.000 C 
ATOM     11  H   UNL     1       3.824  -6.080  16.139  0.00  0.00    +0.000 HD
ATOM     12  H   UNL     1       4.828  -7.516  16.026  0.00  0.00    +0.000 HD
BRANCH  10  13
ATOM     13  C   UNL     1       3.626  -7.139  14.276  0.00  0.00    +0.000 C 
ATOM     14  H   UNL     1       2.567  -7.011  14.033  0.00  0.00    +0.000 HD
ATOM     15  H   UNL     1       4.186  -6.324  13.805  0.00  0.00    +0.000 HD
BRANCH  13  17
ATOM     16  O   UNL     1       3.805  -8.797  12.509  0.00  0.00    +0.000 OA
ATOM     17  C   UNL     1       4.087  -8.432  13.645  0.00  0.00    +0.000 C 
ATOM     18  H   UNL     1       4.729  -9.059  14.289  0.00  0.00    +0.000 HD
ENDBRANCH  13  17
ENDBRANCH  10  13
ENDBRANCH   7  10
ENDBRANCH   4   7
ENDBRANCH   1   4
BRANCH   1  19
ATOM     19  C   UNL     1       0.132  -7.241  16.793  0.00  0.00    +0.000 C 
ATOM     20  H   UNL     1      -0.776  -7.854  16.849  0.00  0.00    +0.000 HD
ATOM     21  H   UNL     1       0.755  -7.670  15.999  0.00  0.00    +0.000 HD
BRANCH  19  22
ATOM     22  C   UNL     1      -0.258  -5.812  16.407  0.00  0.00    +0.000 C 
ATOM     23  H   UNL     1      -1.326  -5.784  16.157  0.00  0.00    +0.000 HD
ATOM     24  H   UNL     1      -0.121  -5.159  17.278  0.00  0.00    +0.000 HD
BRANCH  22  25
ATOM     25  C   UNL     1       0.552  -5.257  15.234  0.00  0.00    +0.000 C 
ATOM     26  H   UNL     1      -0.127  -4.864  14.468  0.00  0.00    +0.000 HD
ATOM     27  H   UNL     1       1.134  -6.062  14.771  0.00  0.00    +0.000 HD
BRANCH  25  28
ATOM     28  C   UNL     1       1.498  -4.155  15.687  0.00  0.00    +0.000 C 
ATOM     29  H   UNL     1       1.903  -4.388  16.677  0.00  0.00    +0.000 HD
ATOM     30  H   UNL     1       2.338  -4.050  14.992  0.00  0.00    +0.000 HD
ATOM     31  H   UNL     1       0.980  -3.193  15.749  0.00  0.00    +0.000 HD
ENDBRANCH  25  28
ENDBRANCH  22  25
ENDBRANCH  19  22
ENDBRANCH   1  19
TORSDOF 9
ENDMDL
