MODEL 1
REMARK VINA RESULT:    -5.634      0.000      0.000
REMARK INTER + INTRA:          -7.418
REMARK INTER:                  -7.203
REMARK INTRA:                  -0.214
REMARK UNBOUND:                -0.301
REMARK  Name = 4284
REMARK  6 active torsions:
REMARK  status: ('A' for Active; 'I' for Inactive)
REMARK    1  A    between atoms: N_2  and  C_3
REMARK    2  A    between atoms: N_2  and  C_4
REMARK    3  A    between atoms: C_3  and  C_7
REMARK    4  A    between atoms: C_4  and  C_8
REMARK    5  A    between atoms: C_5  and  C_6
REMARK    6  A    between atoms: C_10  and  C_14
REMARK                            x       y       z     vdW  Elec       q    Type
REMARK                         _______ _______ _______ _____ _____    ______ ____
ROOT
ATOM      1  O   UNL     1       7.596  -4.119   0.982  0.00  0.00    +0.000 OA
ATOM      2  N   UNL     1       5.868  -3.323  -0.377  0.00  0.00    +0.000 N 
ATOM      3  C   UNL     1       7.216  -3.466   0.001  0.00  0.00    +0.000 C 
ENDROOT
BRANCH   3   4
ATOM      4  C   UNL     1       8.244  -2.827  -0.804  0.00  0.00    +0.000 A 
ATOM      5  C   UNL     1       8.923  -3.558  -1.779  0.00  0.00    +0.000 A 
ATOM      6  C   UNL     1       9.907  -2.942  -2.553  0.00  0.00    +0.000 A 
ATOM      7  C   UNL     1       8.549  -1.480  -0.602  0.00  0.00    +0.000 A 
ATOM      8  C   UNL     1      10.213  -1.596  -2.351  0.00  0.00    +0.000 A 
ATOM      9  C   UNL     1       9.534  -0.865  -1.376  0.00  0.00    +0.000 A 
ATOM     10  H   UNL     1       8.678  -4.604  -1.944  0.00  0.00    +0.000 HD
ATOM     11  H   UNL     1       8.026  -0.902   0.155  0.00  0.00    +0.000 HD
ATOM     12  H   UNL     1      10.979  -1.105  -2.945  0.00  0.00    +0.000 HD
ATOM     13  H   UNL     1       9.771   0.183  -1.218  0.00  0.00    +0.000 HD
BRANCH   6  14
ATOM     14  C   UNL     1      10.632  -3.723  -3.596  0.00  0.00    +0.000 C 
ATOM     15  H   UNL     1      10.008  -3.869  -4.483  0.00  0.00    +0.000 HD
ATOM     16  H   UNL     1      11.539  -3.202  -3.924  0.00  0.00    +0.000 HD
ATOM     17  H   UNL     1      10.917  -4.703  -3.200  0.00  0.00    +0.000 HD
ENDBRANCH   6  14
ENDBRANCH   3   4
BRANCH   2  18
ATOM     18  C   UNL     1       4.783  -3.946   0.369  0.00  0.00    +0.000 C 
ATOM     19  H   UNL     1       4.570  -4.922  -0.080  0.00  0.00    +0.000 HD
ATOM     20  H   UNL     1       5.099  -4.122   1.401  0.00  0.00    +0.000 HD
BRANCH  18  21
ATOM     21  C   UNL     1       3.524  -3.104   0.323  0.00  0.00    +0.000 C 
ATOM     22  H   UNL     1       3.078  -3.110  -0.676  0.00  0.00    +0.000 HD
ATOM     23  H   UNL     1       2.772  -3.480   1.026  0.00  0.00    +0.000 HD
ATOM     24  H   UNL     1       3.749  -2.067   0.589  0.00  0.00    +0.000 HD
ENDBRANCH  18  21
ENDBRANCH   2  18
BRANCH   2  25
ATOM     25  C   UNL     1       5.466  -2.541  -1.544  0.00  0.00    +0.000 C 
ATOM     26  H   UNL     1       4.503  -2.053  -1.369  0.00  0.00    +0.000 HD
ATOM     27  H   UNL     1       6.193  -1.738  -1.702  0.00  0.00    +0.000 HD
BRANCH  25  28
ATOM     28  C   UNL     1       5.371  -3.407  -2.785  0.00  0.00    +0.000 C 
ATOM     29  H   UNL     1       5.005  -2.828  -3.639  0.00  0.00    +0.000 HD
ATOM     30  H   UNL     1       6.331  -3.837  -3.071  0.00  0.00    +0.000 HD
ATOM     31  H   UNL     1       4.670  -4.231  -2.615  0.00  0.00    +0.000 HD
ENDBRANCH  25  28
ENDBRANCH   2  25
TORSDOF 6
ENDMDL
MODEL 2
REMARK VINA RESULT:    -4.849      7.986     10.111
REMARK INTER + INTRA:          -6.426
REMARK INTER:                  -6.174
REMARK INTRA:                  -0.253
REMARK UNBOUND:                -0.301
REMARK  Name = 4284
REMARK  6 active torsions:
REMARK  status: ('A' for Active; 'I' for Inactive)
REMARK    1  A    between atoms: N_2  and  C_3
REMARK    2  A    between atoms: N_2  and  C_4
REMARK    3  A    between atoms: C_3  and  C_7
REMARK    4  A    between atoms: C_4  and  C_8
REMARK    5  A    between atoms: C_5  and  C_6
REMARK    6  A    between atoms: C_10  and  C_14
REMARK                            x       y       z     vdW  Elec       q    Type
REMARK                         _______ _______ _______ _____ _____    ______ ____
ROOT
ATOM      1  O   UNL     1      14.158 -11.207  -4.164  0.00  0.00    +0.000 OA
ATOM      2  N   UNL     1      13.104  -9.489  -5.349  0.00  0.00    +0.000 N 
ATOM      3  C   UNL     1      13.165 -10.496  -4.368  0.00  0.00    +0.000 C 
ENDROOT
BRANCH   3   4
ATOM      4  C   UNL     1      12.006 -10.724  -3.521  0.00  0.00    +0.000 A 
ATOM      5  C   UNL     1      11.729  -9.854  -2.467  0.00  0.00    +0.000 A 
ATOM      6  C   UNL     1      10.614 -10.072  -1.657  0.00  0.00    +0.000 A 
ATOM      7  C   UNL     1      11.167 -11.813  -3.766  0.00  0.00    +0.000 A 
ATOM      8  C   UNL     1       9.776 -11.160  -1.900  0.00  0.00    +0.000 A 
ATOM      9  C   UNL     1      10.053 -12.031  -2.955  0.00  0.00    +0.000 A 
ATOM     10  H   UNL     1      12.375  -8.999  -2.282  0.00  0.00    +0.000 HD
ATOM     11  H   UNL     1      11.374 -12.497  -4.584  0.00  0.00    +0.000 HD
ATOM     12  H   UNL     1       8.906 -11.343  -1.276  0.00  0.00    +0.000 HD
ATOM     13  H   UNL     1       9.402 -12.878  -3.146  0.00  0.00    +0.000 HD
BRANCH   6  14
ATOM     14  C   UNL     1      10.318  -9.141  -0.530  0.00  0.00    +0.000 C 
ATOM     15  H   UNL     1      11.137  -9.131   0.197  0.00  0.00    +0.000 HD
ATOM     16  H   UNL     1      10.192  -8.113  -0.885  0.00  0.00    +0.000 HD
ATOM     17  H   UNL     1       9.398  -9.449  -0.020  0.00  0.00    +0.000 HD
ENDBRANCH   6  14
ENDBRANCH   3   4
BRANCH   2  18
ATOM     18  C   UNL     1      14.229  -9.190  -6.225  0.00  0.00    +0.000 C 
ATOM     19  H   UNL     1      15.003  -9.949  -6.065  0.00  0.00    +0.000 HD
ATOM     20  H   UNL     1      13.912  -9.262  -7.269  0.00  0.00    +0.000 HD
BRANCH  18  21
ATOM     21  C   UNL     1      14.816  -7.826  -5.928  0.00  0.00    +0.000 C 
ATOM     22  H   UNL     1      15.093  -7.733  -4.874  0.00  0.00    +0.000 HD
ATOM     23  H   UNL     1      15.717  -7.645  -6.526  0.00  0.00    +0.000 HD
ATOM     24  H   UNL     1      14.091  -7.040  -6.161  0.00  0.00    +0.000 HD
ENDBRANCH  18  21
ENDBRANCH   2  18
BRANCH   2  25
ATOM     25  C   UNL     1      11.909  -8.673  -5.554  0.00  0.00    +0.000 C 
ATOM     26  H   UNL     1      11.196  -8.821  -4.738  0.00  0.00    +0.000 HD
ATOM     27  H   UNL     1      12.192  -7.615  -5.524  0.00  0.00    +0.000 HD
BRANCH  25  28
ATOM     28  C   UNL     1      11.237  -8.996  -6.873  0.00  0.00    +0.000 C 
ATOM     29  H   UNL     1      11.756  -8.510  -7.706  0.00  0.00    +0.000 HD
ATOM     30  H   UNL     1      11.216 -10.066  -7.083  0.00  0.00    +0.000 HD
ATOM     31  H   UNL     1      10.204  -8.634  -6.867  0.00  0.00    +0.000 HD
ENDBRANCH  25  28
ENDBRANCH   2  25
TORSDOF 6
ENDMDL
MODEL 3
REMARK VINA RESULT:    -4.826     15.355     16.659
REMARK INTER + INTRA:          -6.397
REMARK INTER:                  -6.111
REMARK INTRA:                  -0.285
REMARK UNBOUND:                -0.301
REMARK  Name = 4284
REMARK  6 active torsions:
REMARK  status: ('A' for Active; 'I' for Inactive)
REMARK    1  A    between atoms: N_2  and  C_3
REMARK    2  A    between atoms: N_2  and  C_4
REMARK    3  A    between atoms: C_3  and  C_7
REMARK    4  A    between atoms: C_4  and  C_8
REMARK    5  A    between atoms: C_5  and  C_6
REMARK    6  A    between atoms: C_10  and  C_14
REMARK                            x       y       z     vdW  Elec       q    Type
REMARK                         _______ _______ _______ _____ _____    ______ ____
ROOT
ATOM      1  O   UNL     1      17.075   6.681   2.889  0.00  0.00    +0.000 OA
ATOM      2  N   UNL     1      18.820   8.163   2.414  0.00  0.00    +0.000 N 
ATOM      3  C   UNL     1      17.486   7.837   2.721  0.00  0.00    +0.000 C 
ENDROOT
BRANCH   3   4
ATOM      4  C   UNL     1      16.516   8.910   2.867  0.00  0.00    +0.000 A 
ATOM      5  C   UNL     1      16.158   9.360   4.138  0.00  0.00    +0.000 A 
ATOM      6  C   UNL     1      15.229  10.391   4.277  0.00  0.00    +0.000 A 
ATOM      7  C   UNL     1      15.944   9.491   1.735  0.00  0.00    +0.000 A 
ATOM      8  C   UNL     1      14.657  10.972   3.145  0.00  0.00    +0.000 A 
ATOM      9  C   UNL     1      15.014  10.522   1.874  0.00  0.00    +0.000 A 
ATOM     10  H   UNL     1      16.611   8.914   5.021  0.00  0.00    +0.000 HD
ATOM     11  H   UNL     1      16.215   9.148   0.740  0.00  0.00    +0.000 HD
ATOM     12  H   UNL     1      13.930  11.775   3.239  0.00  0.00    +0.000 HD
ATOM     13  H   UNL     1      14.570  10.974   0.993  0.00  0.00    +0.000 HD
BRANCH   6  14
ATOM     14  C   UNL     1      14.847  10.873   5.636  0.00  0.00    +0.000 C 
ATOM     15  H   UNL     1      14.775  11.965   5.660  0.00  0.00    +0.000 HD
ATOM     16  H   UNL     1      13.869  10.480   5.937  0.00  0.00    +0.000 HD
ATOM     17  H   UNL     1      15.592  10.551   6.371  0.00  0.00    +0.000 HD
ENDBRANCH   6  14
ENDBRANCH   3   4
BRANCH   2  18
ATOM     18  C   UNL     1      19.853   7.147   2.267  0.00  0.00    +0.000 C 
ATOM     19  H   UNL     1      20.690   7.406   2.926  0.00  0.00    +0.000 HD
ATOM     20  H   UNL     1      19.466   6.178   2.595  0.00  0.00    +0.000 HD
BRANCH  18  21
ATOM     21  C   UNL     1      20.360   7.074   0.842  0.00  0.00    +0.000 C 
ATOM     22  H   UNL     1      20.221   6.073   0.421  0.00  0.00    +0.000 HD
ATOM     23  H   UNL     1      19.828   7.782   0.197  0.00  0.00    +0.000 HD
ATOM     24  H   UNL     1      21.427   7.314   0.804  0.00  0.00    +0.000 HD
ENDBRANCH  18  21
ENDBRANCH   2  18
BRANCH   2  25
ATOM     25  C   UNL     1      19.260   9.544   2.225  0.00  0.00    +0.000 C 
ATOM     26  H   UNL     1      19.901   9.627   1.342  0.00  0.00    +0.000 HD
ATOM     27  H   UNL     1      18.385  10.172   2.027  0.00  0.00    +0.000 HD
BRANCH  25  28
ATOM     28  C   UNL     1      20.007  10.059   3.438  0.00  0.00    +0.000 C 
ATOM     29  H   UNL     1      19.735   9.493   4.335  0.00  0.00    +0.000 HD
ATOM     30  H   UNL     1      21.090   9.990   3.325  0.00  0.00    +0.000 HD
ATOM     31  H   UNL     1      19.754  11.109   3.617  0.00  0.00    +0.000 HD
ENDBRANCH  25  28
ENDBRANCH   2  25
TORSDOF 6
ENDMDL
MODEL 4
REMARK VINA RESULT:    -4.550     15.716     16.880
REMARK INTER + INTRA:          -6.049
REMARK INTER:                  -5.735
REMARK INTRA:                  -0.314
REMARK UNBOUND:                -0.301
REMARK  Name = 4284
REMARK  6 active torsions:
REMARK  status: ('A' for Active; 'I' for Inactive)
REMARK    1  A    between atoms: N_2  and  C_3
REMARK    2  A    between atoms: N_2  and  C_4
REMARK    3  A    between atoms: C_3  and  C_7
REMARK    4  A    between atoms: C_4  and  C_8
REMARK    5  A    between atoms: C_5  and  C_6
REMARK    6  A    between atoms: C_10  and  C_14
REMARK                            x       y       z     vdW  Elec       q    Type
REMARK                         _______ _______ _______ _____ _____    ______ ____
ROOT
ATOM      1  O   UNL     1       5.839  12.384   4.532  0.00  0.00    +0.000 OA
ATOM      2  N   UNL     1       3.938  13.457   3.694  0.00  0.00    +0.000 N 
ATOM      3  C   UNL     1       5.215  12.877   3.583  0.00  0.00    +0.000 C 
ENDROOT
BRANCH   3   4
ATOM      4  C   UNL     1       5.854  12.830   2.278  0.00  0.00    +0.000 A 
ATOM      5  C   UNL     1       6.756  13.827   1.906  0.00  0.00    +0.000 A 
ATOM      6  C   UNL     1       7.371  13.780   0.654  0.00  0.00    +0.000 A 
ATOM      7  C   UNL     1       5.567  11.786   1.398  0.00  0.00    +0.000 A 
ATOM      8  C   UNL     1       7.084  12.736  -0.225  0.00  0.00    +0.000 A 
ATOM      9  C   UNL     1       6.182  11.739   0.146  0.00  0.00    +0.000 A 
ATOM     10  H   UNL     1       6.989  14.636   2.595  0.00  0.00    +0.000 HD
ATOM     11  H   UNL     1       4.866  11.004   1.678  0.00  0.00    +0.000 HD
ATOM     12  H   UNL     1       7.554  12.689  -1.204  0.00  0.00    +0.000 HD
ATOM     13  H   UNL     1       5.958  10.926  -0.538  0.00  0.00    +0.000 HD
BRANCH   6  14
ATOM     14  C   UNL     1       8.336  14.846   0.257  0.00  0.00    +0.000 C 
ATOM     15  H   UNL     1       7.865  15.833   0.288  0.00  0.00    +0.000 HD
ATOM     16  H   UNL     1       9.195  14.879   0.937  0.00  0.00    +0.000 HD
ATOM     17  H   UNL     1       8.702  14.661  -0.758  0.00  0.00    +0.000 HD
ENDBRANCH   6  14
ENDBRANCH   3   4
BRANCH   2  18
ATOM     18  C   UNL     1       3.226  13.526   4.964  0.00  0.00    +0.000 C 
ATOM     19  H   UNL     1       2.179  13.254   4.789  0.00  0.00    +0.000 HD
ATOM     20  H   UNL     1       3.643  12.793   5.661  0.00  0.00    +0.000 HD
BRANCH  18  21
ATOM     21  C   UNL     1       3.274  14.922   5.551  0.00  0.00    +0.000 C 
ATOM     22  H   UNL     1       4.005  15.547   5.030  0.00  0.00    +0.000 HD
ATOM     23  H   UNL     1       2.299  15.416   5.474  0.00  0.00    +0.000 HD
ATOM     24  H   UNL     1       3.553  14.881   6.608  0.00  0.00    +0.000 HD
ENDBRANCH  18  21
ENDBRANCH   2  18
BRANCH   2  25
ATOM     25  C   UNL     1       3.238  14.027   2.545  0.00  0.00    +0.000 C 
ATOM     26  H   UNL     1       2.998  15.079   2.722  0.00  0.00    +0.000 HD
ATOM     27  H   UNL     1       3.906  14.007   1.677  0.00  0.00    +0.000 HD
BRANCH  25  28
ATOM     28  C   UNL     1       1.964  13.265   2.239  0.00  0.00    +0.000 C 
ATOM     29  H   UNL     1       2.034  12.759   1.271  0.00  0.00    +0.000 HD
ATOM     30  H   UNL     1       1.739  12.506   2.988  0.00  0.00    +0.000 HD
ATOM     31  H   UNL     1       1.116  13.956   2.195  0.00  0.00    +0.000 HD
ENDBRANCH  25  28
ENDBRANCH   2  25
TORSDOF 6
ENDMDL
MODEL 5
REMARK VINA RESULT:    -4.502     19.307     22.708
REMARK INTER + INTRA:          -5.988
REMARK INTER:                  -5.757
REMARK INTRA:                  -0.231
REMARK UNBOUND:                -0.301
REMARK  Name = 4284
REMARK  6 active torsions:
REMARK  status: ('A' for Active; 'I' for Inactive)
REMARK    1  A    between atoms: N_2  and  C_3
REMARK    2  A    between atoms: N_2  and  C_4
REMARK    3  A    between atoms: C_3  and  C_7
REMARK    4  A    between atoms: C_4  and  C_8
REMARK    5  A    between atoms: C_5  and  C_6
REMARK    6  A    between atoms: C_10  and  C_14
REMARK                            x       y       z     vdW  Elec       q    Type
REMARK                         _______ _______ _______ _____ _____    ______ ____
ROOT
ATOM      1  O   UNL     1      -9.825 -15.037   4.239  0.00  0.00    +0.000 OA
ATOM      2  N   UNL     1      -8.150 -13.986   5.486  0.00  0.00    +0.000 N 
ATOM      3  C   UNL     1      -9.286 -14.802   5.328  0.00  0.00    +0.000 C 
ENDROOT
BRANCH   3   4
ATOM      4  C   UNL     1      -9.871 -15.427   6.503  0.00  0.00    +0.000 A 
ATOM      5  C   UNL     1     -10.973 -14.845   7.129  0.00  0.00    +0.000 A 
ATOM      6  C   UNL     1     -11.536 -15.448   8.254  0.00  0.00    +0.000 A 
ATOM      7  C   UNL     1      -9.332 -16.613   7.002  0.00  0.00    +0.000 A 
ATOM      8  C   UNL     1     -10.996 -16.634   8.754  0.00  0.00    +0.000 A 
ATOM      9  C   UNL     1      -9.894 -17.216   8.128  0.00  0.00    +0.000 A 
ATOM     10  H   UNL     1     -11.401 -13.926   6.735  0.00  0.00    +0.000 HD
ATOM     11  H   UNL     1      -8.473 -17.076   6.522  0.00  0.00    +0.000 HD
ATOM     12  H   UNL     1     -11.423 -17.112   9.631  0.00  0.00    +0.000 HD
ATOM     13  H   UNL     1      -9.473 -18.139   8.516  0.00  0.00    +0.000 HD
BRANCH   6  14
ATOM     14  C   UNL     1     -12.714 -14.826   8.924  0.00  0.00    +0.000 C 
ATOM     15  H   UNL     1     -12.488 -14.576   9.965  0.00  0.00    +0.000 HD
ATOM     16  H   UNL     1     -13.008 -13.894   8.427  0.00  0.00    +0.000 HD
ATOM     17  H   UNL     1     -13.565 -15.515   8.903  0.00  0.00    +0.000 HD
ENDBRANCH   6  14
ENDBRANCH   3   4
BRANCH   2  18
ATOM     18  C   UNL     1      -7.498 -13.338   4.357  0.00  0.00    +0.000 C 
ATOM     19  H   UNL     1      -6.428 -13.251   4.578  0.00  0.00    +0.000 HD
ATOM     20  H   UNL     1      -7.598 -13.963   3.465  0.00  0.00    +0.000 HD
BRANCH  18  21
ATOM     21  C   UNL     1      -8.058 -11.951   4.114  0.00  0.00    +0.000 C 
ATOM     22  H   UNL     1      -9.140 -11.926   4.277  0.00  0.00    +0.000 HD
ATOM     23  H   UNL     1      -7.602 -11.218   4.788  0.00  0.00    +0.000 HD
ATOM     24  H   UNL     1      -7.861 -11.636   3.085  0.00  0.00    +0.000 HD
ENDBRANCH  18  21
ENDBRANCH   2  18
BRANCH   2  25
ATOM     25  C   UNL     1      -7.547 -13.736   6.794  0.00  0.00    +0.000 C 
ATOM     26  H   UNL     1      -7.950 -12.821   7.236  0.00  0.00    +0.000 HD
ATOM     27  H   UNL     1      -7.821 -14.550   7.473  0.00  0.00    +0.000 HD
BRANCH  25  28
ATOM     28  C   UNL     1      -6.039 -13.626   6.696  0.00  0.00    +0.000 C 
ATOM     29  H   UNL     1      -5.565 -14.603   6.833  0.00  0.00    +0.000 HD
ATOM     30  H   UNL     1      -5.708 -13.236   5.733  0.00  0.00    +0.000 HD
ATOM     31  H   UNL     1      -5.660 -12.959   7.477  0.00  0.00    +0.000 HD
ENDBRANCH  25  28
ENDBRANCH   2  25
TORSDOF 6
ENDMDL
MODEL 6
REMARK VINA RESULT:    -4.430     15.674     16.880
REMARK INTER + INTRA:          -5.897
REMARK INTER:                  -5.800
REMARK INTRA:                  -0.097
REMARK UNBOUND:                -0.301
REMARK  Name = 4284
REMARK  6 active torsions:
REMARK  status: ('A' for Active; 'I' for Inactive)
REMARK    1  A    between atoms: N_2  and  C_3
REMARK    2  A    between atoms: N_2  and  C_4
REMARK    3  A    between atoms: C_3  and  C_7
REMARK    4  A    between atoms: C_4  and  C_8
REMARK    5  A    between atoms: C_5  and  C_6
REMARK    6  A    between atoms: C_10  and  C_14
REMARK                            x       y       z     vdW  Elec       q    Type
REMARK                         _______ _______ _______ _____ _____    ______ ____
ROOT
ATOM      1  O   UNL     1      16.943   7.545   2.441  0.00  0.00    +0.000 OA
ATOM      2  N   UNL     1      18.419   9.322   2.085  0.00  0.00    +0.000 N 
ATOM      3  C   UNL     1      17.171   8.761   2.412  0.00  0.00    +0.000 C 
ENDROOT
BRANCH   3   4
ATOM      4  C   UNL     1      16.070   9.647   2.754  0.00  0.00    +0.000 A 
ATOM      5  C   UNL     1      15.830   9.980   4.088  0.00  0.00    +0.000 A 
ATOM      6  C   UNL     1      14.774  10.832   4.414  0.00  0.00    +0.000 A 
ATOM      7  C   UNL     1      15.256  10.167   1.748  0.00  0.00    +0.000 A 
ATOM      8  C   UNL     1      13.960  11.352   3.408  0.00  0.00    +0.000 A 
ATOM      9  C   UNL     1      14.201  11.019   2.075  0.00  0.00    +0.000 A 
ATOM     10  H   UNL     1      16.470   9.583   4.872  0.00  0.00    +0.000 HD
ATOM     11  H   UNL     1      15.434   9.915   0.706  0.00  0.00    +0.000 HD
ATOM     12  H   UNL     1      13.134  12.015   3.649  0.00  0.00    +0.000 HD
ATOM     13  H   UNL     1      13.567  11.423   1.291  0.00  0.00    +0.000 HD
BRANCH   6  14
ATOM     14  C   UNL     1      14.517  11.188   5.839  0.00  0.00    +0.000 C 
ATOM     15  H   UNL     1      13.590  10.730   6.197  0.00  0.00    +0.000 HD
ATOM     16  H   UNL     1      15.323  10.831   6.490  0.00  0.00    +0.000 HD
ATOM     17  H   UNL     1      14.439  12.275   5.947  0.00  0.00    +0.000 HD
ENDBRANCH   6  14
ENDBRANCH   3   4
BRANCH   2  18
ATOM     18  C   UNL     1      19.574   8.501   1.746  0.00  0.00    +0.000 C 
ATOM     19  H   UNL     1      20.482   9.051   2.019  0.00  0.00    +0.000 HD
ATOM     20  H   UNL     1      19.558   7.581   2.337  0.00  0.00    +0.000 HD
BRANCH  18  21
ATOM     21  C   UNL     1      19.620   8.193   0.264  0.00  0.00    +0.000 C 
ATOM     22  H   UNL     1      19.354   7.150   0.066  0.00  0.00    +0.000 HD
ATOM     23  H   UNL     1      18.919   8.825  -0.293  0.00  0.00    +0.000 HD
ATOM     24  H   UNL     1      20.625   8.369  -0.131  0.00  0.00    +0.000 HD
ENDBRANCH  18  21
ENDBRANCH   2  18
BRANCH   2  25
ATOM     25  C   UNL     1      18.643  10.766   2.064  0.00  0.00    +0.000 C 
ATOM     26  H   UNL     1      17.967  11.271   2.760  0.00  0.00    +0.000 HD
ATOM     27  H   UNL     1      19.658  10.974   2.417  0.00  0.00    +0.000 HD
BRANCH  25  28
ATOM     28  C   UNL     1      18.449  11.337   0.673  0.00  0.00    +0.000 C 
ATOM     29  H   UNL     1      17.812  12.227   0.700  0.00  0.00    +0.000 HD
ATOM     30  H   UNL     1      19.390  11.624   0.203  0.00  0.00    +0.000 HD
ATOM     31  H   UNL     1      17.963  10.598   0.028  0.00  0.00    +0.000 HD
ENDBRANCH  25  28
ENDBRANCH   2  25
TORSDOF 6
ENDMDL
MODEL 7
REMARK VINA RESULT:    -4.301      8.906     10.796
REMARK INTER + INTRA:          -5.733
REMARK INTER:                  -5.535
REMARK INTRA:                  -0.198
REMARK UNBOUND:                -0.301
REMARK  Name = 4284
REMARK  6 active torsions:
REMARK  status: ('A' for Active; 'I' for Inactive)
REMARK    1  A    between atoms: N_2  and  C_3
REMARK    2  A    between atoms: N_2  and  C_4
REMARK    3  A    between atoms: C_3  and  C_7
REMARK    4  A    between atoms: C_4  and  C_8
REMARK    5  A    between atoms: C_5  and  C_6
REMARK    6  A    between atoms: C_10  and  C_14
REMARK                            x       y       z     vdW  Elec       q    Type
REMARK                         _______ _______ _______ _____ _____    ______ ____
ROOT
ATOM      1  O   UNL     1      11.617 -14.038  -4.050  0.00  0.00    +0.000 OA
ATOM      2  N   UNL     1      10.898 -12.781  -5.886  0.00  0.00    +0.000 N 
ATOM      3  C   UNL     1      11.285 -12.952  -4.543  0.00  0.00    +0.000 C 
ENDROOT
BRANCH   3   4
ATOM      4  C   UNL     1      11.316 -11.793  -3.667  0.00  0.00    +0.000 A 
ATOM      5  C   UNL     1      10.293 -11.588  -2.742  0.00  0.00    +0.000 A 
ATOM      6  C   UNL     1      10.326 -10.476  -1.900  0.00  0.00    +0.000 A 
ATOM      7  C   UNL     1      12.373 -10.886  -3.750  0.00  0.00    +0.000 A 
ATOM      8  C   UNL     1      11.382  -9.569  -1.983  0.00  0.00    +0.000 A 
ATOM      9  C   UNL     1      12.406  -9.774  -2.908  0.00  0.00    +0.000 A 
ATOM     10  H   UNL     1       9.474 -12.300  -2.670  0.00  0.00    +0.000 HD
ATOM     11  H   UNL     1      13.176 -11.035  -4.467  0.00  0.00    +0.000 HD
ATOM     12  H   UNL     1      11.419  -8.698  -1.335  0.00  0.00    +0.000 HD
ATOM     13  H   UNL     1      13.228  -9.068  -2.974  0.00  0.00    +0.000 HD
BRANCH   6  14
ATOM     14  C   UNL     1       9.232 -10.258  -0.910  0.00  0.00    +0.000 C 
ATOM     15  H   UNL     1       9.385  -9.328  -0.354  0.00  0.00    +0.000 HD
ATOM     16  H   UNL     1       8.257 -10.179  -1.405  0.00  0.00    +0.000 HD
ATOM     17  H   UNL     1       9.195 -11.091  -0.201  0.00  0.00    +0.000 HD
ENDBRANCH   6  14
ENDBRANCH   3   4
BRANCH   2  18
ATOM     18  C   UNL     1      10.857 -13.890  -6.829  0.00  0.00    +0.000 C 
ATOM     19  H   UNL     1      10.661 -14.813  -6.270  0.00  0.00    +0.000 HD
ATOM     20  H   UNL     1      10.027 -13.749  -7.528  0.00  0.00    +0.000 HD
BRANCH  18  21
ATOM     21  C   UNL     1      12.170 -14.039  -7.569  0.00  0.00    +0.000 C 
ATOM     22  H   UNL     1      12.038 -13.894  -8.646  0.00  0.00    +0.000 HD
ATOM     23  H   UNL     1      12.904 -13.302  -7.222  0.00  0.00    +0.000 HD
ATOM     24  H   UNL     1      12.588 -15.037  -7.408  0.00  0.00    +0.000 HD
ENDBRANCH  18  21
ENDBRANCH   2  18
BRANCH   2  25
ATOM     25  C   UNL     1      10.514 -11.478  -6.425  0.00  0.00    +0.000 C 
ATOM     26  H   UNL     1      10.270 -10.783  -5.617  0.00  0.00    +0.000 HD
ATOM     27  H   UNL     1      11.371 -11.045  -6.952  0.00  0.00    +0.000 HD
BRANCH  25  28
ATOM     28  C   UNL     1       9.330 -11.594  -7.363  0.00  0.00    +0.000 C 
ATOM     29  H   UNL     1       9.367 -10.822  -8.138  0.00  0.00    +0.000 HD
ATOM     30  H   UNL     1       9.287 -12.560  -7.867  0.00  0.00    +0.000 HD
ATOM     31  H   UNL     1       8.396 -11.464  -6.806  0.00  0.00    +0.000 HD
ENDBRANCH  25  28
ENDBRANCH   2  25
TORSDOF 6
ENDMDL
MODEL 8
REMARK VINA RESULT:    -4.240     15.078     16.068
REMARK INTER + INTRA:          -5.657
REMARK INTER:                  -5.402
REMARK INTRA:                  -0.255
REMARK UNBOUND:                -0.301
REMARK  Name = 4284
REMARK  6 active torsions:
REMARK  status: ('A' for Active; 'I' for Inactive)
REMARK    1  A    between atoms: N_2  and  C_3
REMARK    2  A    between atoms: N_2  and  C_4
REMARK    3  A    between atoms: C_3  and  C_7
REMARK    4  A    between atoms: C_4  and  C_8
REMARK    5  A    between atoms: C_5  and  C_6
REMARK    6  A    between atoms: C_10  and  C_14
REMARK                            x       y       z     vdW  Elec       q    Type
REMARK                         _______ _______ _______ _____ _____    ______ ____
ROOT
ATOM      1  O   UNL     1      -3.953 -10.056  -7.110  0.00  0.00    +0.000 OA
ATOM      2  N   UNL     1      -5.741  -8.607  -7.521  0.00  0.00    +0.000 N 
ATOM      3  C   UNL     1      -4.598  -9.342  -7.888  0.00  0.00    +0.000 C 
ENDROOT
BRANCH   3   4
ATOM      4  C   UNL     1      -4.137  -9.282  -9.265  0.00  0.00    +0.000 A 
ATOM      5  C   UNL     1      -4.459 -10.307 -10.155  0.00  0.00    +0.000 A 
ATOM      6  C   UNL     1      -4.018 -10.247 -11.477  0.00  0.00    +0.000 A 
ATOM      7  C   UNL     1      -3.374  -8.197  -9.698  0.00  0.00    +0.000 A 
ATOM      8  C   UNL     1      -3.255  -9.163 -11.910  0.00  0.00    +0.000 A 
ATOM      9  C   UNL     1      -2.932  -8.138 -11.020  0.00  0.00    +0.000 A 
ATOM     10  H   UNL     1      -5.062 -11.148  -9.821  0.00  0.00    +0.000 HD
ATOM     11  H   UNL     1      -3.117  -7.393  -9.014  0.00  0.00    +0.000 HD
ATOM     12  H   UNL     1      -2.903  -9.105 -12.936  0.00  0.00    +0.000 HD
ATOM     13  H   UNL     1      -2.338  -7.293 -11.356  0.00  0.00    +0.000 HD
BRANCH   6  14
ATOM     14  C   UNL     1      -4.362 -11.343 -12.428  0.00  0.00    +0.000 C 
ATOM     15  H   UNL     1      -5.173 -11.964 -12.035  0.00  0.00    +0.000 HD
ATOM     16  H   UNL     1      -4.703 -10.943 -13.390  0.00  0.00    +0.000 HD
ATOM     17  H   UNL     1      -3.487 -11.976 -12.605  0.00  0.00    +0.000 HD
ENDBRANCH   6  14
ENDBRANCH   3   4
BRANCH   2  18
ATOM     18  C   UNL     1      -6.273  -8.628  -6.165  0.00  0.00    +0.000 C 
ATOM     19  H   UNL     1      -5.753  -9.410  -5.600  0.00  0.00    +0.000 HD
ATOM     20  H   UNL     1      -6.063  -7.674  -5.672  0.00  0.00    +0.000 HD
BRANCH  18  21
ATOM     21  C   UNL     1      -7.758  -8.927  -6.157  0.00  0.00    +0.000 C 
ATOM     22  H   UNL     1      -8.303  -8.219  -5.525  0.00  0.00    +0.000 HD
ATOM     23  H   UNL     1      -8.179  -8.864  -7.166  0.00  0.00    +0.000 HD
ATOM     24  H   UNL     1      -7.942  -9.936  -5.774  0.00  0.00    +0.000 HD
ENDBRANCH  18  21
ENDBRANCH   2  18
BRANCH   2  25
ATOM     25  C   UNL     1      -6.472  -7.776  -8.475  0.00  0.00    +0.000 C 
ATOM     26  H   UNL     1      -6.217  -8.052  -9.502  0.00  0.00    +0.000 HD
ATOM     27  H   UNL     1      -7.544  -7.967  -8.364  0.00  0.00    +0.000 HD
BRANCH  25  28
ATOM     28  C   UNL     1      -6.181  -6.304  -8.263  0.00  0.00    +0.000 C 
ATOM     29  H   UNL     1      -6.875  -5.868  -7.537  0.00  0.00    +0.000 HD
ATOM     30  H   UNL     1      -5.170  -6.124  -7.895  0.00  0.00    +0.000 HD
ATOM     31  H   UNL     1      -6.297  -5.759  -9.206  0.00  0.00    +0.000 HD
ENDBRANCH  25  28
ENDBRANCH   2  25
TORSDOF 6
ENDMDL
MODEL 9
REMARK VINA RESULT:    -4.230     15.791     17.359
REMARK INTER + INTRA:          -5.644
REMARK INTER:                  -5.660
REMARK INTRA:                   0.017
REMARK UNBOUND:                -0.301
REMARK  Name = 4284
REMARK  6 active torsions:
REMARK  status: ('A' for Active; 'I' for Inactive)
REMARK    1  A    between atoms: N_2  and  C_3
REMARK    2  A    between atoms: N_2  and  C_4
REMARK    3  A    between atoms: C_3  and  C_7
REMARK    4  A    between atoms: C_4  and  C_8
REMARK    5  A    between atoms: C_5  and  C_6
REMARK    6  A    between atoms: C_10  and  C_14
REMARK                            x       y       z     vdW  Elec       q    Type
REMARK                         _______ _______ _______ _____ _____    ______ ____
ROOT
ATOM      1  O   UNL     1      19.642   7.415   1.137  0.00  0.00    +0.000 OA
ATOM      2  N   UNL     1      19.994   9.507   0.157  0.00  0.00    +0.000 N 
ATOM      3  C   UNL     1      19.265   8.572   0.914  0.00  0.00    +0.000 C 
ENDROOT
BRANCH   3   4
ATOM      4  C   UNL     1      17.993   8.974   1.492  0.00  0.00    +0.000 A 
ATOM      5  C   UNL     1      17.803   8.918   2.873  0.00  0.00    +0.000 A 
ATOM      6  C   UNL     1      16.583   9.308   3.425  0.00  0.00    +0.000 A 
ATOM      7  C   UNL     1      16.961   9.419   0.664  0.00  0.00    +0.000 A 
ATOM      8  C   UNL     1      15.551   9.752   2.598  0.00  0.00    +0.000 A 
ATOM      9  C   UNL     1      15.741   9.808   1.217  0.00  0.00    +0.000 A 
ATOM     10  H   UNL     1      18.610   8.582   3.520  0.00  0.00    +0.000 HD
ATOM     11  H   UNL     1      17.098   9.467  -0.413  0.00  0.00    +0.000 HD
ATOM     12  H   UNL     1      14.595  10.055   3.015  0.00  0.00    +0.000 HD
ATOM     13  H   UNL     1      14.939  10.154   0.572  0.00  0.00    +0.000 HD
BRANCH   6  14
ATOM     14  C   UNL     1      16.380   9.248   4.902  0.00  0.00    +0.000 C 
ATOM     15  H   UNL     1      17.194   9.754   5.430  0.00  0.00    +0.000 HD
ATOM     16  H   UNL     1      15.449   9.744   5.196  0.00  0.00    +0.000 HD
ATOM     17  H   UNL     1      16.339   8.205   5.233  0.00  0.00    +0.000 HD
ENDBRANCH   6  14
ENDBRANCH   3   4
BRANCH   2  18
ATOM     18  C   UNL     1      21.283   9.185  -0.441  0.00  0.00    +0.000 C 
ATOM     19  H   UNL     1      21.972  10.016  -0.247  0.00  0.00    +0.000 HD
ATOM     20  H   UNL     1      21.700   8.295   0.040  0.00  0.00    +0.000 HD
BRANCH  18  21
ATOM     21  C   UNL     1      21.167   8.989  -1.938  0.00  0.00    +0.000 C 
ATOM     22  H   UNL     1      21.735   9.748  -2.484  0.00  0.00    +0.000 HD
ATOM     23  H   UNL     1      21.550   8.007  -2.239  0.00  0.00    +0.000 HD
ATOM     24  H   UNL     1      20.120   9.056  -2.251  0.00  0.00    +0.000 HD
ENDBRANCH  18  21
ENDBRANCH   2  18
BRANCH   2  25
ATOM     25  C   UNL     1      19.509  10.865  -0.081  0.00  0.00    +0.000 C 
ATOM     26  H   UNL     1      19.661  11.152  -1.125  0.00  0.00    +0.000 HD
ATOM     27  H   UNL     1      18.427  10.891   0.089  0.00  0.00    +0.000 HD
BRANCH  25  28
ATOM     28  C   UNL     1      20.201  11.867   0.822  0.00  0.00    +0.000 C 
ATOM     29  H   UNL     1      19.780  12.868   0.691  0.00  0.00    +0.000 HD
ATOM     30  H   UNL     1      20.112  11.611   1.878  0.00  0.00    +0.000 HD
ATOM     31  H   UNL     1      21.267  11.918   0.577  0.00  0.00    +0.000 HD
ENDBRANCH  25  28
ENDBRANCH   2  25
TORSDOF 6
ENDMDL
MODEL 10
REMARK VINA RESULT:    -4.189      8.819     10.640
REMARK INTER + INTRA:          -5.593
REMARK INTER:                  -5.291
REMARK INTRA:                  -0.301
REMARK UNBOUND:                -0.301
REMARK  Name = 4284
REMARK  6 active torsions:
REMARK  status: ('A' for Active; 'I' for Inactive)
REMARK    1  A    between atoms: N_2  and  C_3
REMARK    2  A    between atoms: N_2  and  C_4
REMARK    3  A    between atoms: C_3  and  C_7
REMARK    4  A    between atoms: C_4  and  C_8
REMARK    5  A    between atoms: C_5  and  C_6
REMARK    6  A    between atoms: C_10  and  C_14
REMARK                            x       y       z     vdW  Elec       q    Type
REMARK                         _______ _______ _______ _____ _____    ______ ____
ROOT
ATOM      1  O   UNL     1      11.758 -12.445  -6.941  0.00  0.00    +0.000 OA
ATOM      2  N   UNL     1      11.371 -10.301  -7.791  0.00  0.00    +0.000 N 
ATOM      3  C   UNL     1      11.831 -11.214  -6.824  0.00  0.00    +0.000 C 
ENDROOT
BRANCH   3   4
ATOM      4  C   UNL     1      12.446 -10.703  -5.610  0.00  0.00    +0.000 A 
ATOM      5  C   UNL     1      11.655 -10.379  -4.509  0.00  0.00    +0.000 A 
ATOM      6  C   UNL     1      12.247  -9.891  -3.343  0.00  0.00    +0.000 A 
ATOM      7  C   UNL     1      13.831 -10.538  -5.547  0.00  0.00    +0.000 A 
ATOM      8  C   UNL     1      13.631  -9.726  -3.280  0.00  0.00    +0.000 A 
ATOM      9  C   UNL     1      14.422 -10.049  -4.382  0.00  0.00    +0.000 A 
ATOM     10  H   UNL     1      10.577 -10.516  -4.553  0.00  0.00    +0.000 HD
ATOM     11  H   UNL     1      14.457 -10.788  -6.399  0.00  0.00    +0.000 HD
ATOM     12  H   UNL     1      14.104  -9.344  -2.380  0.00  0.00    +0.000 HD
ATOM     13  H   UNL     1      15.500  -9.922  -4.334  0.00  0.00    +0.000 HD
BRANCH   6  14
ATOM     14  C   UNL     1      11.400  -9.545  -2.165  0.00  0.00    +0.000 C 
ATOM     15  H   UNL     1      11.720 -10.097  -1.276  0.00  0.00    +0.000 HD
ATOM     16  H   UNL     1      11.472  -8.478  -1.923  0.00  0.00    +0.000 HD
ATOM     17  H   UNL     1      10.352  -9.785  -2.373  0.00  0.00    +0.000 HD
ENDBRANCH   6  14
ENDBRANCH   3   4
BRANCH   2  18
ATOM     18  C   UNL     1      10.758 -10.736  -9.039  0.00  0.00    +0.000 C 
ATOM     19  H   UNL     1      10.392 -11.761  -8.906  0.00  0.00    +0.000 HD
ATOM     20  H   UNL     1       9.892 -10.106  -9.263  0.00  0.00    +0.000 HD
BRANCH  18  21
ATOM     21  C   UNL     1      11.752 -10.718 -10.181  0.00  0.00    +0.000 C 
ATOM     22  H   UNL     1      11.832 -11.702 -10.654  0.00  0.00    +0.000 HD
ATOM     23  H   UNL     1      11.453 -10.001 -10.954  0.00  0.00    +0.000 HD
ATOM     24  H   UNL     1      12.745 -10.433  -9.818  0.00  0.00    +0.000 HD
ENDBRANCH  18  21
ENDBRANCH   2  18
BRANCH   2  25
ATOM     25  C   UNL     1      11.478  -8.855  -7.609  0.00  0.00    +0.000 C 
ATOM     26  H   UNL     1      11.967  -8.621  -6.660  0.00  0.00    +0.000 HD
ATOM     27  H   UNL     1      12.122  -8.446  -8.394  0.00  0.00    +0.000 HD
BRANCH  25  28
ATOM     28  C   UNL     1      10.117  -8.189  -7.652  0.00  0.00    +0.000 C 
ATOM     29  H   UNL     1       9.715  -8.185  -8.670  0.00  0.00    +0.000 HD
ATOM     30  H   UNL     1       9.386  -8.688  -7.015  0.00  0.00    +0.000 HD
ATOM     31  H   UNL     1      10.198  -7.149  -7.321  0.00  0.00    +0.000 HD
ENDBRANCH  25  28
ENDBRANCH   2  25
TORSDOF 6
ENDMDL
