MODEL 1
REMARK VINA RESULT:    -4.369      0.000      0.000
REMARK INTER + INTRA:          -6.725
REMARK INTER:                  -6.221
REMARK INTRA:                  -0.504
REMARK UNBOUND:                -0.312
REMARK  Name = 31249
REMARK  9 active torsions:
REMARK  status: ('A' for Active; 'I' for Inactive)
REMARK    1  A    between atoms: O_1  and  C_7
REMARK    2  A    between atoms: O_1  and  C_9
REMARK    3  A    between atoms: O_2  and  C_8
REMARK    4  A    between atoms: O_2  and  C_10
REMARK    5  A    between atoms: C_5  and  C_6
REMARK    6  A    between atoms: C_5  and  C_7
REMARK    7  A    between atoms: C_6  and  C_8
REMARK    8  A    between atoms: C_9  and  C_11
REMARK    9  A    between atoms: C_10  and  C_12
REMARK                            x       y       z     vdW  Elec       q    Type
REMARK                         _______ _______ _______ _____ _____    ______ ____
ROOT
ATOM      1  C   UNL     1       8.088  -1.534  -0.342  0.00  0.00    +0.000 C 
ATOM      2  H   UNL     1       8.019  -0.623   0.265  0.00  0.00    +0.000 HD
ATOM      3  H   UNL     1       7.470  -1.402  -1.238  0.00  0.00    +0.000 HD
ENDROOT
BRANCH   1   4
ATOM      4  C   UNL     1       7.575  -2.727   0.460  0.00  0.00    +0.000 C 
ATOM      5  H   UNL     1       8.229  -3.592   0.292  0.00  0.00    +0.000 HD
ATOM      6  H   UNL     1       7.589  -2.486   1.529  0.00  0.00    +0.000 HD
BRANCH   4   8
ATOM      7  O   UNL     1       5.540  -4.060   0.560  0.00  0.00    +0.000 OA
ATOM      8  C   UNL     1       6.163  -3.123   0.082  0.00  0.00    +0.000 C 
BRANCH   8   9
ATOM      9  O   UNL     1       5.709  -2.268  -0.883  0.00  0.00    +0.000 OA
BRANCH   9  10
ATOM     10  C   UNL     1       4.780  -2.831  -1.815  0.00  0.00    +0.000 C 
ATOM     11  H   UNL     1       4.192  -3.610  -1.319  0.00  0.00    +0.000 HD
ATOM     12  H   UNL     1       4.110  -2.047  -2.182  0.00  0.00    +0.000 HD
BRANCH  10  13
ATOM     13  C   UNL     1       5.548  -3.430  -2.975  0.00  0.00    +0.000 C 
ATOM     14  H   UNL     1       4.868  -3.751  -3.769  0.00  0.00    +0.000 HD
ATOM     15  H   UNL     1       6.254  -2.702  -3.387  0.00  0.00    +0.000 HD
ATOM     16  H   UNL     1       6.138  -4.292  -2.643  0.00  0.00    +0.000 HD
ENDBRANCH  10  13
ENDBRANCH   9  10
ENDBRANCH   8   9
ENDBRANCH   4   8
ENDBRANCH   1   4
BRANCH   1  18
ATOM     17  O   UNL     1      10.478  -1.887  -0.037  0.00  0.00    +0.000 OA
ATOM     18  C   UNL     1       9.526  -1.700  -0.783  0.00  0.00    +0.000 C 
BRANCH  18  19
ATOM     19  O   UNL     1       9.585  -1.597  -2.145  0.00  0.00    +0.000 OA
BRANCH  19  20
ATOM     20  C   UNL     1       9.270  -2.791  -2.867  0.00  0.00    +0.000 C 
ATOM     21  H   UNL     1       8.703  -3.470  -2.220  0.00  0.00    +0.000 HD
ATOM     22  H   UNL     1       8.666  -2.538  -3.746  0.00  0.00    +0.000 HD
BRANCH  20  23
ATOM     23  C   UNL     1      10.557  -3.457  -3.306  0.00  0.00    +0.000 C 
ATOM     24  H   UNL     1      10.604  -4.489  -2.948  0.00  0.00    +0.000 HD
ATOM     25  H   UNL     1      10.638  -3.457  -4.398  0.00  0.00    +0.000 HD
ATOM     26  H   UNL     1      11.423  -2.910  -2.922  0.00  0.00    +0.000 HD
ENDBRANCH  20  23
ENDBRANCH  19  20
ENDBRANCH  18  19
ENDBRANCH   1  18
TORSDOF 9
ENDMDL
MODEL 2
REMARK VINA RESULT:    -4.280      1.588      4.325
REMARK INTER + INTRA:          -6.593
REMARK INTER:                  -6.011
REMARK INTRA:                  -0.582
REMARK UNBOUND:                -0.312
REMARK  Name = 31249
REMARK  9 active torsions:
REMARK  status: ('A' for Active; 'I' for Inactive)
REMARK    1  A    between atoms: O_1  and  C_7
REMARK    2  A    between atoms: O_1  and  C_9
REMARK    3  A    between atoms: O_2  and  C_8
REMARK    4  A    between atoms: O_2  and  C_10
REMARK    5  A    between atoms: C_5  and  C_6
REMARK    6  A    between atoms: C_5  and  C_7
REMARK    7  A    between atoms: C_6  and  C_8
REMARK    8  A    between atoms: C_9  and  C_11
REMARK    9  A    between atoms: C_10  and  C_12
REMARK                            x       y       z     vdW  Elec       q    Type
REMARK                         _______ _______ _______ _____ _____    ______ ____
ROOT
ATOM      1  C   UNL     1       7.623  -1.818   0.395  0.00  0.00    +0.000 C 
ATOM      2  H   UNL     1       7.068  -1.329  -0.416  0.00  0.00    +0.000 HD
ATOM      3  H   UNL     1       7.570  -1.179   1.284  0.00  0.00    +0.000 HD
ENDROOT
BRANCH   1   4
ATOM      4  C   UNL     1       9.080  -2.000  -0.017  0.00  0.00    +0.000 C 
ATOM      5  H   UNL     1       9.707  -1.276   0.518  0.00  0.00    +0.000 HD
ATOM      6  H   UNL     1       9.415  -3.010   0.249  0.00  0.00    +0.000 HD
BRANCH   4   8
ATOM      7  O   UNL     1       9.831  -0.833  -2.017  0.00  0.00    +0.000 OA
ATOM      8  C   UNL     1       9.299  -1.805  -1.503  0.00  0.00    +0.000 C 
BRANCH   8   9
ATOM      9  O   UNL     1       8.796  -2.888  -2.168  0.00  0.00    +0.000 OA
BRANCH   9  10
ATOM     10  C   UNL     1       7.972  -2.587  -3.299  0.00  0.00    +0.000 C 
ATOM     11  H   UNL     1       8.033  -1.516  -3.520  0.00  0.00    +0.000 HD
ATOM     12  H   UNL     1       8.320  -3.158  -4.167  0.00  0.00    +0.000 HD
BRANCH  10  13
ATOM     13  C   UNL     1       6.541  -2.962  -2.980  0.00  0.00    +0.000 C 
ATOM     14  H   UNL     1       5.913  -2.905  -3.874  0.00  0.00    +0.000 HD
ATOM     15  H   UNL     1       6.489  -3.979  -2.578  0.00  0.00    +0.000 HD
ATOM     16  H   UNL     1       6.128  -2.297  -2.215  0.00  0.00    +0.000 HD
ENDBRANCH  10  13
ENDBRANCH   9  10
ENDBRANCH   8   9
ENDBRANCH   4   8
ENDBRANCH   1   4
BRANCH   1  18
ATOM     17  O   UNL     1       7.399  -4.240   0.502  0.00  0.00    +0.000 OA
ATOM     18  C   UNL     1       6.935  -3.128   0.714  0.00  0.00    +0.000 C 
BRANCH  18  19
ATOM     19  O   UNL     1       5.714  -2.862   1.267  0.00  0.00    +0.000 OA
BRANCH  19  20
ATOM     20  C   UNL     1       4.642  -3.702   0.826  0.00  0.00    +0.000 C 
ATOM     21  H   UNL     1       5.054  -4.608   0.368  0.00  0.00    +0.000 HD
ATOM     22  H   UNL     1       4.017  -3.978   1.683  0.00  0.00    +0.000 HD
BRANCH  20  23
ATOM     23  C   UNL     1       3.812  -2.947  -0.191  0.00  0.00    +0.000 C 
ATOM     24  H   UNL     1       2.744  -3.087  -0.004  0.00  0.00    +0.000 HD
ATOM     25  H   UNL     1       4.040  -1.877  -0.157  0.00  0.00    +0.000 HD
ATOM     26  H   UNL     1       4.040  -3.289  -1.205  0.00  0.00    +0.000 HD
ENDBRANCH  20  23
ENDBRANCH  19  20
ENDBRANCH  18  19
ENDBRANCH   1  18
TORSDOF 9
ENDMDL
MODEL 3
REMARK VINA RESULT:    -4.076      9.658     11.422
REMARK INTER + INTRA:          -6.295
REMARK INTER:                  -5.896
REMARK INTRA:                  -0.399
REMARK UNBOUND:                -0.312
REMARK  Name = 31249
REMARK  9 active torsions:
REMARK  status: ('A' for Active; 'I' for Inactive)
REMARK    1  A    between atoms: O_1  and  C_7
REMARK    2  A    between atoms: O_1  and  C_9
REMARK    3  A    between atoms: O_2  and  C_8
REMARK    4  A    between atoms: O_2  and  C_10
REMARK    5  A    between atoms: C_5  and  C_6
REMARK    6  A    between atoms: C_5  and  C_7
REMARK    7  A    between atoms: C_6  and  C_8
REMARK    8  A    between atoms: C_9  and  C_11
REMARK    9  A    between atoms: C_10  and  C_12
REMARK                            x       y       z     vdW  Elec       q    Type
REMARK                         _______ _______ _______ _____ _____    ______ ____
ROOT
ATOM      1  C   UNL     1       4.256 -11.763  -0.903  0.00  0.00    +0.000 C 
ATOM      2  H   UNL     1       3.669 -12.065  -1.779  0.00  0.00    +0.000 HD
ATOM      3  H   UNL     1       4.820 -10.858  -1.160  0.00  0.00    +0.000 HD
ENDROOT
BRANCH   1   4
ATOM      4  C   UNL     1       5.226 -12.878  -0.523  0.00  0.00    +0.000 C 
ATOM      5  H   UNL     1       5.011 -13.221   0.496  0.00  0.00    +0.000 HD
ATOM      6  H   UNL     1       5.100 -13.725  -1.207  0.00  0.00    +0.000 HD
BRANCH   4   8
ATOM      7  O   UNL     1       7.061 -11.279  -0.573  0.00  0.00    +0.000 OA
ATOM      8  C   UNL     1       6.674 -12.438  -0.576  0.00  0.00    +0.000 C 
BRANCH   8   9
ATOM      9  O   UNL     1       7.469 -13.548  -0.636  0.00  0.00    +0.000 OA
BRANCH   9  10
ATOM     10  C   UNL     1       7.453 -14.379   0.529  0.00  0.00    +0.000 C 
ATOM     11  H   UNL     1       6.452 -14.367   0.973  0.00  0.00    +0.000 HD
ATOM     12  H   UNL     1       7.716 -15.405   0.249  0.00  0.00    +0.000 HD
BRANCH  10  13
ATOM     13  C   UNL     1       8.461 -13.848   1.527  0.00  0.00    +0.000 C 
ATOM     14  H   UNL     1       8.662 -12.788   1.352  0.00  0.00    +0.000 HD
ATOM     15  H   UNL     1       8.093 -13.974   2.550  0.00  0.00    +0.000 HD
ATOM     16  H   UNL     1       9.402 -14.404   1.457  0.00  0.00    +0.000 HD
ENDBRANCH  10  13
ENDBRANCH   9  10
ENDBRANCH   8   9
ENDBRANCH   4   8
ENDBRANCH   1   4
BRANCH   1  18
ATOM     17  O   UNL     1       2.235 -10.821   0.075  0.00  0.00    +0.000 OA
ATOM     18  C   UNL     1       3.295 -11.416   0.213  0.00  0.00    +0.000 C 
BRANCH  18  19
ATOM     19  O   UNL     1       3.810 -11.869   1.396  0.00  0.00    +0.000 OA
BRANCH  19  20
ATOM     20  C   UNL     1       2.919 -11.818   2.515  0.00  0.00    +0.000 C 
ATOM     21  H   UNL     1       3.268 -11.060   3.225  0.00  0.00    +0.000 HD
ATOM     22  H   UNL     1       1.912 -11.557   2.169  0.00  0.00    +0.000 HD
BRANCH  20  23
ATOM     23  C   UNL     1       2.893 -13.174   3.187  0.00  0.00    +0.000 C 
ATOM     24  H   UNL     1       1.963 -13.316   3.744  0.00  0.00    +0.000 HD
ATOM     25  H   UNL     1       2.986 -13.974   2.444  0.00  0.00    +0.000 HD
ATOM     26  H   UNL     1       3.737 -13.279   3.875  0.00  0.00    +0.000 HD
ENDBRANCH  20  23
ENDBRANCH  19  20
ENDBRANCH  18  19
ENDBRANCH   1  18
TORSDOF 9
ENDMDL
MODEL 4
REMARK VINA RESULT:    -4.075      8.266      9.100
REMARK INTER + INTRA:          -6.293
REMARK INTER:                  -6.051
REMARK INTRA:                  -0.243
REMARK UNBOUND:                -0.312
REMARK  Name = 31249
REMARK  9 active torsions:
REMARK  status: ('A' for Active; 'I' for Inactive)
REMARK    1  A    between atoms: O_1  and  C_7
REMARK    2  A    between atoms: O_1  and  C_9
REMARK    3  A    between atoms: O_2  and  C_8
REMARK    4  A    between atoms: O_2  and  C_10
REMARK    5  A    between atoms: C_5  and  C_6
REMARK    6  A    between atoms: C_5  and  C_7
REMARK    7  A    between atoms: C_6  and  C_8
REMARK    8  A    between atoms: C_9  and  C_11
REMARK    9  A    between atoms: C_10  and  C_12
REMARK                            x       y       z     vdW  Elec       q    Type
REMARK                         _______ _______ _______ _____ _____    ______ ____
ROOT
ATOM      1  C   UNL     1       8.027 -11.695  -0.595  0.00  0.00    +0.000 C 
ATOM      2  H   UNL     1       8.260 -12.147  -1.567  0.00  0.00    +0.000 HD
ATOM      3  H   UNL     1       8.520 -12.284   0.187  0.00  0.00    +0.000 HD
ENDROOT
BRANCH   1   4
ATOM      4  C   UNL     1       6.518 -11.709  -0.370  0.00  0.00    +0.000 C 
ATOM      5  H   UNL     1       6.134 -10.682  -0.386  0.00  0.00    +0.000 HD
ATOM      6  H   UNL     1       6.030 -12.273  -1.174  0.00  0.00    +0.000 HD
BRANCH   4   8
ATOM      7  O   UNL     1       6.847 -13.054   1.633  0.00  0.00    +0.000 OA
ATOM      8  C   UNL     1       6.129 -12.337   0.951  0.00  0.00    +0.000 C 
BRANCH   8   9
ATOM      9  O   UNL     1       4.845 -11.977   1.249  0.00  0.00    +0.000 OA
BRANCH   9  10
ATOM     10  C   UNL     1       4.266 -12.639   2.378  0.00  0.00    +0.000 C 
ATOM     11  H   UNL     1       4.177 -13.710   2.167  0.00  0.00    +0.000 HD
ATOM     12  H   UNL     1       4.905 -12.493   3.255  0.00  0.00    +0.000 HD
BRANCH  10  13
ATOM     13  C   UNL     1       2.894 -12.055   2.643  0.00  0.00    +0.000 C 
ATOM     14  H   UNL     1       2.684 -12.023   3.715  0.00  0.00    +0.000 HD
ATOM     15  H   UNL     1       2.823 -11.040   2.239  0.00  0.00    +0.000 HD
ATOM     16  H   UNL     1       2.119 -12.649   2.147  0.00  0.00    +0.000 HD
ENDBRANCH  10  13
ENDBRANCH   9  10
ENDBRANCH   8   9
ENDBRANCH   4   8
ENDBRANCH   1   4
BRANCH   1  18
ATOM     17  O   UNL     1       7.961  -9.262  -0.546  0.00  0.00    +0.000 OA
ATOM     18  C   UNL     1       8.610 -10.299  -0.571  0.00  0.00    +0.000 C 
BRANCH  18  19
ATOM     19  O   UNL     1       9.974 -10.389  -0.590  0.00  0.00    +0.000 OA
BRANCH  19  20
ATOM     20  C   UNL     1      10.569 -10.437  -1.891  0.00  0.00    +0.000 C 
ATOM     21  H   UNL     1      11.198 -11.330  -1.972  0.00  0.00    +0.000 HD
ATOM     22  H   UNL     1       9.781 -10.476  -2.652  0.00  0.00    +0.000 HD
BRANCH  20  23
ATOM     23  C   UNL     1      11.414  -9.196  -2.092  0.00  0.00    +0.000 C 
ATOM     24  H   UNL     1      11.204  -8.451  -1.320  0.00  0.00    +0.000 HD
ATOM     25  H   UNL     1      12.480  -9.447  -2.062  0.00  0.00    +0.000 HD
ATOM     26  H   UNL     1      11.219  -8.754  -3.074  0.00  0.00    +0.000 HD
ENDBRANCH  20  23
ENDBRANCH  19  20
ENDBRANCH  18  19
ENDBRANCH   1  18
TORSDOF 9
ENDMDL
MODEL 5
REMARK VINA RESULT:    -4.004     15.982     17.187
REMARK INTER + INTRA:          -6.189
REMARK INTER:                  -5.695
REMARK INTRA:                  -0.494
REMARK UNBOUND:                -0.312
REMARK  Name = 31249
REMARK  9 active torsions:
REMARK  status: ('A' for Active; 'I' for Inactive)
REMARK    1  A    between atoms: O_1  and  C_7
REMARK    2  A    between atoms: O_1  and  C_9
REMARK    3  A    between atoms: O_2  and  C_8
REMARK    4  A    between atoms: O_2  and  C_10
REMARK    5  A    between atoms: C_5  and  C_6
REMARK    6  A    between atoms: C_5  and  C_7
REMARK    7  A    between atoms: C_6  and  C_8
REMARK    8  A    between atoms: C_9  and  C_11
REMARK    9  A    between atoms: C_10  and  C_12
REMARK                            x       y       z     vdW  Elec       q    Type
REMARK                         _______ _______ _______ _____ _____    ______ ____
ROOT
ATOM      1  C   UNL     1       2.385  -7.407  14.017  0.00  0.00    +0.000 C 
ATOM      2  H   UNL     1       1.535  -8.035  13.725  0.00  0.00    +0.000 HD
ATOM      3  H   UNL     1       2.389  -7.315  15.109  0.00  0.00    +0.000 HD
ENDROOT
BRANCH   1   4
ATOM      4  C   UNL     1       2.242  -6.023  13.389  0.00  0.00    +0.000 C 
ATOM      5  H   UNL     1       3.204  -5.710  12.966  0.00  0.00    +0.000 HD
ATOM      6  H   UNL     1       1.504  -6.060  12.580  0.00  0.00    +0.000 HD
BRANCH   4   8
ATOM      7  O   UNL     1       2.482  -4.033  14.771  0.00  0.00    +0.000 OA
ATOM      8  C   UNL     1       1.801  -4.972  14.385  0.00  0.00    +0.000 C 
BRANCH   8   9
ATOM      9  O   UNL     1       0.524  -5.251  14.784  0.00  0.00    +0.000 OA
BRANCH   9  10
ATOM     10  C   UNL     1       0.285  -5.156  16.192  0.00  0.00    +0.000 C 
ATOM     11  H   UNL     1       1.235  -5.242  16.731  0.00  0.00    +0.000 HD
ATOM     12  H   UNL     1      -0.176  -4.189  16.420  0.00  0.00    +0.000 HD
BRANCH  10  13
ATOM     13  C   UNL     1      -0.644  -6.276  16.611  0.00  0.00    +0.000 C 
ATOM     14  H   UNL     1      -0.590  -6.445  17.690  0.00  0.00    +0.000 HD
ATOM     15  H   UNL     1      -1.678  -6.040  16.343  0.00  0.00    +0.000 HD
ATOM     16  H   UNL     1      -0.385  -7.206  16.093  0.00  0.00    +0.000 HD
ENDBRANCH  10  13
ENDBRANCH   9  10
ENDBRANCH   8   9
ENDBRANCH   4   8
ENDBRANCH   1   4
BRANCH   1  18
ATOM     17  O   UNL     1       3.811  -8.738  12.560  0.00  0.00    +0.000 OA
ATOM     18  C   UNL     1       3.658  -8.111  13.599  0.00  0.00    +0.000 C 
BRANCH  18  19
ATOM     19  O   UNL     1       4.600  -7.937  14.575  0.00  0.00    +0.000 OA
BRANCH  19  20
ATOM     20  C   UNL     1       5.717  -7.119  14.214  0.00  0.00    +0.000 C 
ATOM     21  H   UNL     1       6.648  -7.655  14.432  0.00  0.00    +0.000 HD
ATOM     22  H   UNL     1       5.671  -6.890  13.143  0.00  0.00    +0.000 HD
BRANCH  20  23
ATOM     23  C   UNL     1       5.667  -5.835  15.015  0.00  0.00    +0.000 C 
ATOM     24  H   UNL     1       4.643  -5.607  15.323  0.00  0.00    +0.000 HD
ATOM     25  H   UNL     1       6.297  -5.913  15.908  0.00  0.00    +0.000 HD
ATOM     26  H   UNL     1       6.053  -4.998  14.425  0.00  0.00    +0.000 HD
ENDBRANCH  20  23
ENDBRANCH  19  20
ENDBRANCH  18  19
ENDBRANCH   1  18
TORSDOF 9
ENDMDL
MODEL 6
REMARK VINA RESULT:    -3.977     15.641     17.278
REMARK INTER + INTRA:          -6.149
REMARK INTER:                  -5.836
REMARK INTRA:                  -0.312
REMARK UNBOUND:                -0.312
REMARK  Name = 31249
REMARK  9 active torsions:
REMARK  status: ('A' for Active; 'I' for Inactive)
REMARK    1  A    between atoms: O_1  and  C_7
REMARK    2  A    between atoms: O_1  and  C_9
REMARK    3  A    between atoms: O_2  and  C_8
REMARK    4  A    between atoms: O_2  and  C_10
REMARK    5  A    between atoms: C_5  and  C_6
REMARK    6  A    between atoms: C_5  and  C_7
REMARK    7  A    between atoms: C_6  and  C_8
REMARK    8  A    between atoms: C_9  and  C_11
REMARK    9  A    between atoms: C_10  and  C_12
REMARK                            x       y       z     vdW  Elec       q    Type
REMARK                         _______ _______ _______ _____ _____    ______ ____
ROOT
ATOM      1  C   UNL     1       2.241  -6.565  13.671  0.00  0.00    +0.000 C 
ATOM      2  H   UNL     1       1.490  -7.306  13.974  0.00  0.00    +0.000 HD
ATOM      3  H   UNL     1       2.190  -6.445  12.583  0.00  0.00    +0.000 HD
ENDROOT
BRANCH   1   4
ATOM      4  C   UNL     1       3.632  -7.052  14.067  0.00  0.00    +0.000 C 
ATOM      5  H   UNL     1       4.326  -6.202  14.091  0.00  0.00    +0.000 HD
ATOM      6  H   UNL     1       3.597  -7.497  15.067  0.00  0.00    +0.000 HD
BRANCH   4   8
ATOM      7  O   UNL     1       3.603  -9.096  12.745  0.00  0.00    +0.000 OA
ATOM      8  C   UNL     1       4.185  -8.085  13.108  0.00  0.00    +0.000 C 
BRANCH   8   9
ATOM      9  O   UNL     1       5.441  -7.703  12.725  0.00  0.00    +0.000 OA
BRANCH   9  10
ATOM     10  C   UNL     1       6.398  -7.590  13.783  0.00  0.00    +0.000 C 
ATOM     11  H   UNL     1       7.159  -6.852  13.510  0.00  0.00    +0.000 HD
ATOM     12  H   UNL     1       5.893  -7.270  14.701  0.00  0.00    +0.000 HD
BRANCH  10  13
ATOM     13  C   UNL     1       7.051  -8.939  14.003  0.00  0.00    +0.000 C 
ATOM     14  H   UNL     1       6.552  -9.488  14.807  0.00  0.00    +0.000 HD
ATOM     15  H   UNL     1       7.012  -9.539  13.089  0.00  0.00    +0.000 HD
ATOM     16  H   UNL     1       8.109  -8.818  14.260  0.00  0.00    +0.000 HD
ENDBRANCH  10  13
ENDBRANCH   9  10
ENDBRANCH   8   9
ENDBRANCH   4   8
ENDBRANCH   1   4
BRANCH   1  18
ATOM     17  O   UNL     1       2.642  -4.292  14.447  0.00  0.00    +0.000 OA
ATOM     18  C   UNL     1       1.881  -5.240  14.308  0.00  0.00    +0.000 C 
BRANCH  18  19
ATOM     19  O   UNL     1       0.574  -5.282  14.707  0.00  0.00    +0.000 OA
BRANCH  19  20
ATOM     20  C   UNL     1       0.356  -5.160  16.116  0.00  0.00    +0.000 C 
ATOM     21  H   UNL     1       1.307  -5.286  16.644  0.00  0.00    +0.000 HD
ATOM     22  H   UNL     1      -0.056  -4.169  16.337  0.00  0.00    +0.000 HD
BRANCH  20  23
ATOM     23  C   UNL     1      -0.620  -6.230  16.558  0.00  0.00    +0.000 C 
ATOM     24  H   UNL     1      -1.047  -6.750  15.696  0.00  0.00    +0.000 HD
ATOM     25  H   UNL     1      -0.123  -6.962  17.203  0.00  0.00    +0.000 HD
ATOM     26  H   UNL     1      -1.433  -5.790  17.143  0.00  0.00    +0.000 HD
ENDBRANCH  20  23
ENDBRANCH  19  20
ENDBRANCH  18  19
ENDBRANCH   1  18
TORSDOF 9
ENDMDL
MODEL 7
REMARK VINA RESULT:    -3.931      7.844      9.806
REMARK INTER + INTRA:          -6.083
REMARK INTER:                  -5.815
REMARK INTRA:                  -0.268
REMARK UNBOUND:                -0.312
REMARK  Name = 31249
REMARK  9 active torsions:
REMARK  status: ('A' for Active; 'I' for Inactive)
REMARK    1  A    between atoms: O_1  and  C_7
REMARK    2  A    between atoms: O_1  and  C_9
REMARK    3  A    between atoms: O_2  and  C_8
REMARK    4  A    between atoms: O_2  and  C_10
REMARK    5  A    between atoms: C_5  and  C_6
REMARK    6  A    between atoms: C_5  and  C_7
REMARK    7  A    between atoms: C_6  and  C_8
REMARK    8  A    between atoms: C_9  and  C_11
REMARK    9  A    between atoms: C_10  and  C_12
REMARK                            x       y       z     vdW  Elec       q    Type
REMARK                         _______ _______ _______ _____ _____    ______ ____
ROOT
ATOM      1  C   UNL     1      10.489 -10.343  -1.765  0.00  0.00    +0.000 C 
ATOM      2  H   UNL     1      11.052 -11.253  -1.524  0.00  0.00    +0.000 HD
ATOM      3  H   UNL     1       9.831 -10.558  -2.615  0.00  0.00    +0.000 HD
ENDROOT
BRANCH   1   4
ATOM      4  C   UNL     1      11.456  -9.223  -2.138  0.00  0.00    +0.000 C 
ATOM      5  H   UNL     1      10.893  -8.303  -2.336  0.00  0.00    +0.000 HD
ATOM      6  H   UNL     1      12.143  -9.036  -1.305  0.00  0.00    +0.000 HD
BRANCH   4   8
ATOM      7  O   UNL     1      11.846  -9.628  -4.507  0.00  0.00    +0.000 OA
ATOM      8  C   UNL     1      12.279  -9.546  -3.367  0.00  0.00    +0.000 C 
BRANCH   8   9
ATOM      9  O   UNL     1      13.578  -9.737  -2.989  0.00  0.00    +0.000 OA
BRANCH   9  10
ATOM     10  C   UNL     1      14.493 -10.025  -4.053  0.00  0.00    +0.000 C 
ATOM     11  H   UNL     1      13.996  -9.862  -5.015  0.00  0.00    +0.000 HD
ATOM     12  H   UNL     1      15.362  -9.363  -3.976  0.00  0.00    +0.000 HD
BRANCH  10  13
ATOM     13  C   UNL     1      14.937 -11.468  -3.944  0.00  0.00    +0.000 C 
ATOM     14  H   UNL     1      15.485 -11.776  -4.839  0.00  0.00    +0.000 HD
ATOM     15  H   UNL     1      15.580 -11.609  -3.070  0.00  0.00    +0.000 HD
ATOM     16  H   UNL     1      14.073 -12.129  -3.813  0.00  0.00    +0.000 HD
ENDBRANCH  10  13
ENDBRANCH   9  10
ENDBRANCH   8   9
ENDBRANCH   4   8
ENDBRANCH   1   4
BRANCH   1  18
ATOM     17  O   UNL     1      10.017  -9.482   0.463  0.00  0.00    +0.000 OA
ATOM     18  C   UNL     1       9.621  -9.996  -0.575  0.00  0.00    +0.000 C 
BRANCH  18  19
ATOM     19  O   UNL     1       8.332 -10.359  -0.847  0.00  0.00    +0.000 OA
BRANCH  19  20
ATOM     20  C   UNL     1       7.782 -11.367   0.007  0.00  0.00    +0.000 C 
ATOM     21  H   UNL     1       8.420 -11.484   0.891  0.00  0.00    +0.000 HD
ATOM     22  H   UNL     1       6.775 -11.070   0.322  0.00  0.00    +0.000 HD
BRANCH  20  23
ATOM     23  C   UNL     1       7.716 -12.674  -0.753  0.00  0.00    +0.000 C 
ATOM     24  H   UNL     1       6.708 -12.851  -1.139  0.00  0.00    +0.000 HD
ATOM     25  H   UNL     1       8.420 -12.669  -1.592  0.00  0.00    +0.000 HD
ATOM     26  H   UNL     1       7.998 -13.510  -0.106  0.00  0.00    +0.000 HD
ENDBRANCH  20  23
ENDBRANCH  19  20
ENDBRANCH  18  19
ENDBRANCH   1  18
TORSDOF 9
ENDMDL
MODEL 8
REMARK VINA RESULT:    -3.926      1.039      4.182
REMARK INTER + INTRA:          -6.074
REMARK INTER:                  -5.655
REMARK INTRA:                  -0.419
REMARK UNBOUND:                -0.312
REMARK  Name = 31249
REMARK  9 active torsions:
REMARK  status: ('A' for Active; 'I' for Inactive)
REMARK    1  A    between atoms: O_1  and  C_7
REMARK    2  A    between atoms: O_1  and  C_9
REMARK    3  A    between atoms: O_2  and  C_8
REMARK    4  A    between atoms: O_2  and  C_10
REMARK    5  A    between atoms: C_5  and  C_6
REMARK    6  A    between atoms: C_5  and  C_7
REMARK    7  A    between atoms: C_6  and  C_8
REMARK    8  A    between atoms: C_9  and  C_11
REMARK    9  A    between atoms: C_10  and  C_12
REMARK                            x       y       z     vdW  Elec       q    Type
REMARK                         _______ _______ _______ _____ _____    ______ ____
ROOT
ATOM      1  C   UNL     1       7.129  -2.125   0.656  0.00  0.00    +0.000 C 
ATOM      2  H   UNL     1       6.900  -1.325  -0.058  0.00  0.00    +0.000 HD
ATOM      3  H   UNL     1       7.066  -1.713   1.670  0.00  0.00    +0.000 HD
ENDROOT
BRANCH   1   4
ATOM      4  C   UNL     1       8.540  -2.651   0.406  0.00  0.00    +0.000 C 
ATOM      5  H   UNL     1       9.175  -2.423   1.270  0.00  0.00    +0.000 HD
ATOM      6  H   UNL     1       8.511  -3.738   0.275  0.00  0.00    +0.000 HD
BRANCH   4   8
ATOM      7  O   UNL     1       9.152  -0.858  -1.123  0.00  0.00    +0.000 OA
ATOM      8  C   UNL     1       9.181  -2.042  -0.823  0.00  0.00    +0.000 C 
BRANCH   8   9
ATOM      9  O   UNL     1       9.788  -3.035  -1.541  0.00  0.00    +0.000 OA
BRANCH   9  10
ATOM     10  C   UNL     1       9.558  -3.002  -2.953  0.00  0.00    +0.000 C 
ATOM     11  H   UNL     1       8.552  -3.379  -3.168  0.00  0.00    +0.000 HD
ATOM     12  H   UNL     1       9.645  -1.971  -3.313  0.00  0.00    +0.000 HD
BRANCH  10  13
ATOM     13  C   UNL     1      10.588  -3.872  -3.641  0.00  0.00    +0.000 C 
ATOM     14  H   UNL     1      11.293  -3.264  -4.215  0.00  0.00    +0.000 HD
ATOM     15  H   UNL     1      11.147  -4.461  -2.907  0.00  0.00    +0.000 HD
ATOM     16  H   UNL     1      10.103  -4.584  -4.317  0.00  0.00    +0.000 HD
ENDBRANCH  10  13
ENDBRANCH   9  10
ENDBRANCH   8   9
ENDBRANCH   4   8
ENDBRANCH   1   4
BRANCH   1  18
ATOM     17  O   UNL     1       5.827  -4.063   1.349  0.00  0.00    +0.000 OA
ATOM     18  C   UNL     1       6.071  -3.199   0.518  0.00  0.00    +0.000 C 
BRANCH  18  19
ATOM     19  O   UNL     1       5.443  -3.048  -0.687  0.00  0.00    +0.000 OA
BRANCH  19  20
ATOM     20  C   UNL     1       5.903  -3.909  -1.733  0.00  0.00    +0.000 C 
ATOM     21  H   UNL     1       6.930  -4.227  -1.519  0.00  0.00    +0.000 HD
ATOM     22  H   UNL     1       5.254  -4.791  -1.792  0.00  0.00    +0.000 HD
BRANCH  20  23
ATOM     23  C   UNL     1       5.864  -3.156  -3.046  0.00  0.00    +0.000 C 
ATOM     24  H   UNL     1       5.206  -3.655  -3.763  0.00  0.00    +0.000 HD
ATOM     25  H   UNL     1       5.507  -2.132  -2.891  0.00  0.00    +0.000 HD
ATOM     26  H   UNL     1       6.866  -3.081  -3.477  0.00  0.00    +0.000 HD
ENDBRANCH  20  23
ENDBRANCH  19  20
ENDBRANCH  18  19
ENDBRANCH   1  18
TORSDOF 9
ENDMDL
MODEL 9
REMARK VINA RESULT:    -3.923      8.991     10.859
REMARK INTER + INTRA:          -6.070
REMARK INTER:                  -5.625
REMARK INTRA:                  -0.445
REMARK UNBOUND:                -0.312
REMARK  Name = 31249
REMARK  9 active torsions:
REMARK  status: ('A' for Active; 'I' for Inactive)
REMARK    1  A    between atoms: O_1  and  C_7
REMARK    2  A    between atoms: O_1  and  C_9
REMARK    3  A    between atoms: O_2  and  C_8
REMARK    4  A    between atoms: O_2  and  C_10
REMARK    5  A    between atoms: C_5  and  C_6
REMARK    6  A    between atoms: C_5  and  C_7
REMARK    7  A    between atoms: C_6  and  C_8
REMARK    8  A    between atoms: C_9  and  C_11
REMARK    9  A    between atoms: C_10  and  C_12
REMARK                            x       y       z     vdW  Elec       q    Type
REMARK                         _______ _______ _______ _____ _____    ______ ____
ROOT
ATOM      1  C   UNL     1       6.226 -12.430   1.495  0.00  0.00    +0.000 C 
ATOM      2  H   UNL     1       6.381 -11.562   2.148  0.00  0.00    +0.000 HD
ATOM      3  H   UNL     1       6.964 -13.197   1.759  0.00  0.00    +0.000 HD
ENDROOT
BRANCH   1   4
ATOM      4  C   UNL     1       6.416 -12.018   0.038  0.00  0.00    +0.000 C 
ATOM      5  H   UNL     1       5.611 -12.445  -0.572  0.00  0.00    +0.000 HD
ATOM      6  H   UNL     1       6.372 -10.926  -0.045  0.00  0.00    +0.000 HD
BRANCH   4   8
ATOM      7  O   UNL     1       8.173 -13.624  -0.474  0.00  0.00    +0.000 OA
ATOM      8  C   UNL     1       7.739 -12.483  -0.534  0.00  0.00    +0.000 C 
BRANCH   8   9
ATOM      9  O   UNL     1       8.365 -11.418  -1.117  0.00  0.00    +0.000 OA
BRANCH   9  10
ATOM     10  C   UNL     1       9.001 -10.508  -0.214  0.00  0.00    +0.000 C 
ATOM     11  H   UNL     1       8.630 -10.683   0.802  0.00  0.00    +0.000 HD
ATOM     12  H   UNL     1      10.084 -10.665  -0.238  0.00  0.00    +0.000 HD
BRANCH  10  13
ATOM     13  C   UNL     1       8.681  -9.090  -0.637  0.00  0.00    +0.000 C 
ATOM     14  H   UNL     1       8.593  -9.017  -1.725  0.00  0.00    +0.000 HD
ATOM     15  H   UNL     1       7.743  -8.754  -0.184  0.00  0.00    +0.000 HD
ATOM     16  H   UNL     1       9.462  -8.400  -0.298  0.00  0.00    +0.000 HD
ENDBRANCH  10  13
ENDBRANCH   9  10
ENDBRANCH   8   9
ENDBRANCH   4   8
ENDBRANCH   1   4
BRANCH   1  18
ATOM     17  O   UNL     1       4.430 -14.069   1.377  0.00  0.00    +0.000 OA
ATOM     18  C   UNL     1       4.847 -12.989   1.771  0.00  0.00    +0.000 C 
BRANCH  18  19
ATOM     19  O   UNL     1       4.147 -12.087   2.522  0.00  0.00    +0.000 OA
BRANCH  19  20
ATOM     20  C   UNL     1       2.763 -11.948   2.186  0.00  0.00    +0.000 C 
ATOM     21  H   UNL     1       2.355 -12.927   1.909  0.00  0.00    +0.000 HD
ATOM     22  H   UNL     1       2.214 -11.557   3.051  0.00  0.00    +0.000 HD
BRANCH  20  23
ATOM     23  C   UNL     1       2.632 -10.990   1.021  0.00  0.00    +0.000 C 
ATOM     24  H   UNL     1       3.177 -10.063   1.215  0.00  0.00    +0.000 HD
ATOM     25  H   UNL     1       3.021 -11.444   0.103  0.00  0.00    +0.000 HD
ATOM     26  H   UNL     1       1.581 -10.751   0.836  0.00  0.00    +0.000 HD
ENDBRANCH  20  23
ENDBRANCH  19  20
ENDBRANCH  18  19
ENDBRANCH   1  18
TORSDOF 9
ENDMDL
MODEL 10
REMARK VINA RESULT:    -3.877      9.209     10.223
REMARK INTER + INTRA:          -6.003
REMARK INTER:                  -5.640
REMARK INTRA:                  -0.363
REMARK UNBOUND:                -0.312
REMARK  Name = 31249
REMARK  9 active torsions:
REMARK  status: ('A' for Active; 'I' for Inactive)
REMARK    1  A    between atoms: O_1  and  C_7
REMARK    2  A    between atoms: O_1  and  C_9
REMARK    3  A    between atoms: O_2  and  C_8
REMARK    4  A    between atoms: O_2  and  C_10
REMARK    5  A    between atoms: C_5  and  C_6
REMARK    6  A    between atoms: C_5  and  C_7
REMARK    7  A    between atoms: C_6  and  C_8
REMARK    8  A    between atoms: C_9  and  C_11
REMARK    9  A    between atoms: C_10  and  C_12
REMARK                            x       y       z     vdW  Elec       q    Type
REMARK                         _______ _______ _______ _____ _____    ______ ____
ROOT
ATOM      1  C   UNL     1       6.575 -13.326   0.200  0.00  0.00    +0.000 C 
ATOM      2  H   UNL     1       5.695 -13.458  -0.442  0.00  0.00    +0.000 HD
ATOM      3  H   UNL     1       6.986 -14.316   0.431  0.00  0.00    +0.000 HD
ENDROOT
BRANCH   1   4
ATOM      4  C   UNL     1       6.168 -12.627   1.494  0.00  0.00    +0.000 C 
ATOM      5  H   UNL     1       6.382 -13.281   2.348  0.00  0.00    +0.000 HD
ATOM      6  H   UNL     1       6.745 -11.703   1.612  0.00  0.00    +0.000 HD
BRANCH   4   8
ATOM      7  O   UNL     1       4.031 -11.915   0.569  0.00  0.00    +0.000 OA
ATOM      8  C   UNL     1       4.696 -12.273   1.530  0.00  0.00    +0.000 C 
BRANCH   8   9
ATOM      9  O   UNL     1       4.241 -12.412   2.811  0.00  0.00    +0.000 OA
BRANCH   9  10
ATOM     10  C   UNL     1       2.820 -12.518   2.951  0.00  0.00    +0.000 C 
ATOM     11  H   UNL     1       2.502 -11.985   3.853  0.00  0.00    +0.000 HD
ATOM     12  H   UNL     1       2.332 -12.075   2.076  0.00  0.00    +0.000 HD
BRANCH  10  13
ATOM     13  C   UNL     1       2.443 -13.980   3.060  0.00  0.00    +0.000 C 
ATOM     14  H   UNL     1       3.317 -14.592   3.301  0.00  0.00    +0.000 HD
ATOM     15  H   UNL     1       1.685 -14.126   3.836  0.00  0.00    +0.000 HD
ATOM     16  H   UNL     1       2.009 -14.338   2.121  0.00  0.00    +0.000 HD
ENDBRANCH  10  13
ENDBRANCH   9  10
ENDBRANCH   8   9
ENDBRANCH   4   8
ENDBRANCH   1   4
BRANCH   1  18
ATOM     17  O   UNL     1       8.376 -13.033  -1.411  0.00  0.00    +0.000 OA
ATOM     18  C   UNL     1       7.617 -12.554  -0.580  0.00  0.00    +0.000 C 
BRANCH  18  19
ATOM     19  O   UNL     1       7.574 -11.242  -0.197  0.00  0.00    +0.000 OA
BRANCH  19  20
ATOM     20  C   UNL     1       8.818 -10.539  -0.267  0.00  0.00    +0.000 C 
ATOM     21  H   UNL     1       9.322 -10.591   0.704  0.00  0.00    +0.000 HD
ATOM     22  H   UNL     1       9.455 -10.999  -1.032  0.00  0.00    +0.000 HD
BRANCH  20  23
ATOM     23  C   UNL     1       8.548  -9.094  -0.627  0.00  0.00    +0.000 C 
ATOM     24  H   UNL     1       9.446  -8.484  -0.495  0.00  0.00    +0.000 HD
ATOM     25  H   UNL     1       8.214  -9.012  -1.667  0.00  0.00    +0.000 HD
ATOM     26  H   UNL     1       7.748  -8.685  -0.003  0.00  0.00    +0.000 HD
ENDBRANCH  20  23
ENDBRANCH  19  20
ENDBRANCH  18  19
ENDBRANCH   1  18
TORSDOF 9
ENDMDL
