MODEL 1
REMARK VINA RESULT:    -1.838      0.000      0.000
REMARK INTER + INTRA:          -2.053
REMARK INTER:                  -2.053
REMARK INTRA:                   0.000
REMARK UNBOUND:                 0.000
REMARK  Name = 12232
REMARK  3 active torsions:
REMARK  status: ('A' for Active; 'I' for Inactive)
REMARK    1  A    between atoms: S_1  and  S_2
REMARK    2  A    between atoms: S_1  and  C_3
REMARK    3  A    between atoms: S_2  and  C_4
REMARK                            x       y       z     vdW  Elec       q    Type
REMARK                         _______ _______ _______ _____ _____    ______ ____
ROOT
ATOM      1  S   UNL     1       2.990 -11.582   1.798  0.00  0.00    +0.000 S 
ENDROOT
BRANCH   1   2
ATOM      2  C   UNL     1       2.788 -12.778   3.140  0.00  0.00    +0.000 C 
ATOM      3  H   UNL     1       2.260 -12.325   3.984  0.00  0.00    +0.000 HD
ATOM      4  H   UNL     1       3.775 -13.097   3.485  0.00  0.00    +0.000 HD
ATOM      5  H   UNL     1       2.245 -13.660   2.792  0.00  0.00    +0.000 HD
ENDBRANCH   1   2
BRANCH   1   6
ATOM      6  S   UNL     1       4.566 -12.388   0.753  0.00  0.00    +0.000 S 
BRANCH   6   7
ATOM      7  C   UNL     1       4.286 -11.725  -0.906  0.00  0.00    +0.000 C 
ATOM      8  H   UNL     1       5.097 -11.050  -1.195  0.00  0.00    +0.000 HD
ATOM      9  H   UNL     1       3.351 -11.158  -0.911  0.00  0.00    +0.000 HD
ATOM     10  H   UNL     1       4.200 -12.535  -1.636  0.00  0.00    +0.000 HD
ENDBRANCH   6   7
ENDBRANCH   1   6
TORSDOF 3
ENDMDL
MODEL 2
REMARK VINA RESULT:    -1.825     28.500     29.066
REMARK INTER + INTRA:          -2.039
REMARK INTER:                  -2.039
REMARK INTRA:                   0.000
REMARK UNBOUND:                 0.000
REMARK  Name = 12232
REMARK  3 active torsions:
REMARK  status: ('A' for Active; 'I' for Inactive)
REMARK    1  A    between atoms: S_1  and  S_2
REMARK    2  A    between atoms: S_1  and  C_3
REMARK    3  A    between atoms: S_2  and  C_4
REMARK                            x       y       z     vdW  Elec       q    Type
REMARK                         _______ _______ _______ _____ _____    ______ ____
ROOT
ATOM      1  S   UNL     1      -8.270   5.668  20.857  0.00  0.00    +0.000 S 
ENDROOT
BRANCH   1   2
ATOM      2  C   UNL     1      -6.796   4.622  20.784  0.00  0.00    +0.000 C 
ATOM      3  H   UNL     1      -7.074   3.571  20.661  0.00  0.00    +0.000 HD
ATOM      4  H   UNL     1      -6.241   4.722  21.721  0.00  0.00    +0.000 HD
ATOM      5  H   UNL     1      -6.143   4.933  19.964  0.00  0.00    +0.000 HD
ENDBRANCH   1   2
BRANCH   1   6
ATOM      6  S   UNL     1      -7.520   7.491  20.274  0.00  0.00    +0.000 S 
BRANCH   6   7
ATOM      7  C   UNL     1      -8.791   8.060  19.120  0.00  0.00    +0.000 C 
ATOM      8  H   UNL     1      -8.489   8.996  18.643  0.00  0.00    +0.000 HD
ATOM      9  H   UNL     1      -9.718   8.241  19.671  0.00  0.00    +0.000 HD
ATOM     10  H   UNL     1      -8.988   7.301  18.358  0.00  0.00    +0.000 HD
ENDBRANCH   6   7
ENDBRANCH   1   6
TORSDOF 3
ENDMDL
MODEL 3
REMARK VINA RESULT:    -1.821      0.306      3.460
REMARK INTER + INTRA:          -2.034
REMARK INTER:                  -2.034
REMARK INTRA:                   0.000
REMARK UNBOUND:                 0.000
REMARK  Name = 12232
REMARK  3 active torsions:
REMARK  status: ('A' for Active; 'I' for Inactive)
REMARK    1  A    between atoms: S_1  and  S_2
REMARK    2  A    between atoms: S_1  and  C_3
REMARK    3  A    between atoms: S_2  and  C_4
REMARK                            x       y       z     vdW  Elec       q    Type
REMARK                         _______ _______ _______ _____ _____    ______ ____
ROOT
ATOM      1  S   UNL     1       4.589 -12.435   0.835  0.00  0.00    +0.000 S 
ENDROOT
BRANCH   1   2
ATOM      2  C   UNL     1       4.165 -11.690  -0.757  0.00  0.00    +0.000 C 
ATOM      3  H   UNL     1       4.330 -10.609  -0.734  0.00  0.00    +0.000 HD
ATOM      4  H   UNL     1       3.107 -11.870  -0.965  0.00  0.00    +0.000 HD
ATOM      5  H   UNL     1       4.754 -12.139  -1.562  0.00  0.00    +0.000 HD
ENDBRANCH   1   2
BRANCH   1   6
ATOM      6  S   UNL     1       2.994 -11.868   2.001  0.00  0.00    +0.000 S 
BRANCH   6   7
ATOM      7  C   UNL     1       2.964 -13.178   3.248  0.00  0.00    +0.000 C 
ATOM      8  H   UNL     1       3.866 -13.793   3.184  0.00  0.00    +0.000 HD
ATOM      9  H   UNL     1       2.098 -13.822   3.069  0.00  0.00    +0.000 HD
ATOM     10  H   UNL     1       2.874 -12.753   4.251  0.00  0.00    +0.000 HD
ENDBRANCH   6   7
ENDBRANCH   1   6
TORSDOF 3
ENDMDL
MODEL 4
REMARK VINA RESULT:    -1.799     25.171     26.305
REMARK INTER + INTRA:          -2.009
REMARK INTER:                  -2.009
REMARK INTRA:                   0.000
REMARK UNBOUND:                 0.000
REMARK  Name = 12232
REMARK  3 active torsions:
REMARK  status: ('A' for Active; 'I' for Inactive)
REMARK    1  A    between atoms: S_1  and  S_2
REMARK    2  A    between atoms: S_1  and  C_3
REMARK    3  A    between atoms: S_2  and  C_4
REMARK                            x       y       z     vdW  Elec       q    Type
REMARK                         _______ _______ _______ _____ _____    ______ ____
ROOT
ATOM      1  S   UNL     1     -18.088  -1.873   8.416  0.00  0.00    +0.000 S 
ENDROOT
BRANCH   1   2
ATOM      2  C   UNL     1     -17.916  -0.909   6.895  0.00  0.00    +0.000 C 
ATOM      3  H   UNL     1     -18.659  -0.108   6.860  0.00  0.00    +0.000 HD
ATOM      4  H   UNL     1     -18.079  -1.566   6.036  0.00  0.00    +0.000 HD
ATOM      5  H   UNL     1     -16.910  -0.488   6.818  0.00  0.00    +0.000 HD
ENDBRANCH   1   2
BRANCH   1   6
ATOM      6  S   UNL     1     -20.065  -1.563   8.887  0.00  0.00    +0.000 S 
BRANCH   6   7
ATOM      7  C   UNL     1     -20.273  -2.637  10.326  0.00  0.00    +0.000 C 
ATOM      8  H   UNL     1     -20.679  -3.608  10.029  0.00  0.00    +0.000 HD
ATOM      9  H   UNL     1     -20.978  -2.171  11.020  0.00  0.00    +0.000 HD
ATOM     10  H   UNL     1     -19.321  -2.775  10.846  0.00  0.00    +0.000 HD
ENDBRANCH   6   7
ENDBRANCH   1   6
TORSDOF 3
ENDMDL
MODEL 5
REMARK VINA RESULT:    -1.785     15.825     16.335
REMARK INTER + INTRA:          -1.994
REMARK INTER:                  -1.994
REMARK INTRA:                   0.000
REMARK UNBOUND:                 0.000
REMARK  Name = 12232
REMARK  3 active torsions:
REMARK  status: ('A' for Active; 'I' for Inactive)
REMARK    1  A    between atoms: S_1  and  S_2
REMARK    2  A    between atoms: S_1  and  C_3
REMARK    3  A    between atoms: S_2  and  C_4
REMARK                            x       y       z     vdW  Elec       q    Type
REMARK                         _______ _______ _______ _____ _____    ______ ____
ROOT
ATOM      1  S   UNL     1       3.190  -4.346  15.188  0.00  0.00    +0.000 S 
ENDROOT
BRANCH   1   2
ATOM      2  C   UNL     1       3.573  -2.627  14.776  0.00  0.00    +0.000 C 
ATOM      3  H   UNL     1       3.710  -2.511  13.697  0.00  0.00    +0.000 HD
ATOM      4  H   UNL     1       4.505  -2.341  15.272  0.00  0.00    +0.000 HD
ATOM      5  H   UNL     1       2.780  -1.961  15.125  0.00  0.00    +0.000 HD
ENDBRANCH   1   2
BRANCH   1   6
ATOM      6  S   UNL     1       1.158  -4.260  15.492  0.00  0.00    +0.000 S 
BRANCH   6   7
ATOM      7  C   UNL     1       0.650  -5.941  15.061  0.00  0.00    +0.000 C 
ATOM      8  H   UNL     1       1.510  -6.616  15.056  0.00  0.00    +0.000 HD
ATOM      9  H   UNL     1       0.213  -5.936  14.059  0.00  0.00    +0.000 HD
ATOM     10  H   UNL     1      -0.106  -6.307  15.762  0.00  0.00    +0.000 HD
ENDBRANCH   6   7
ENDBRANCH   1   6
TORSDOF 3
ENDMDL
MODEL 6
REMARK VINA RESULT:    -1.771      1.828      3.337
REMARK INTER + INTRA:          -1.978
REMARK INTER:                  -1.978
REMARK INTRA:                   0.000
REMARK UNBOUND:                 0.000
REMARK  Name = 12232
REMARK  3 active torsions:
REMARK  status: ('A' for Active; 'I' for Inactive)
REMARK    1  A    between atoms: S_1  and  S_2
REMARK    2  A    between atoms: S_1  and  C_3
REMARK    3  A    between atoms: S_2  and  C_4
REMARK                            x       y       z     vdW  Elec       q    Type
REMARK                         _______ _______ _______ _____ _____    ______ ____
ROOT
ATOM      1  S   UNL     1       4.305 -12.360   1.075  0.00  0.00    +0.000 S 
ENDROOT
BRANCH   1   2
ATOM      2  C   UNL     1       5.889 -12.261   1.942  0.00  0.00    +0.000 C 
ATOM      3  H   UNL     1       6.095 -11.233   2.253  0.00  0.00    +0.000 HD
ATOM      4  H   UNL     1       6.687 -12.580   1.265  0.00  0.00    +0.000 HD
ATOM      5  H   UNL     1       5.894 -12.922   2.813  0.00  0.00    +0.000 HD
ENDBRANCH   1   2
BRANCH   1   6
ATOM      6  S   UNL     1       2.967 -12.173   2.625  0.00  0.00    +0.000 S 
BRANCH   6   7
ATOM      7  C   UNL     1       3.043 -13.816   3.377  0.00  0.00    +0.000 C 
ATOM      8  H   UNL     1       2.070 -14.311   3.324  0.00  0.00    +0.000 HD
ATOM      9  H   UNL     1       3.317 -13.713   4.431  0.00  0.00    +0.000 HD
ATOM     10  H   UNL     1       3.800 -14.431   2.884  0.00  0.00    +0.000 HD
ENDBRANCH   6   7
ENDBRANCH   1   6
TORSDOF 3
ENDMDL
MODEL 7
REMARK VINA RESULT:    -1.730     14.578     15.453
REMARK INTER + INTRA:          -1.933
REMARK INTER:                  -1.933
REMARK INTRA:                   0.000
REMARK UNBOUND:                 0.000
REMARK  Name = 12232
REMARK  3 active torsions:
REMARK  status: ('A' for Active; 'I' for Inactive)
REMARK    1  A    between atoms: S_1  and  S_2
REMARK    2  A    between atoms: S_1  and  C_3
REMARK    3  A    between atoms: S_2  and  C_4
REMARK                            x       y       z     vdW  Elec       q    Type
REMARK                         _______ _______ _______ _____ _____    ______ ____
ROOT
ATOM      1  S   UNL     1       0.549  -5.197  15.930  0.00  0.00    +0.000 S 
ENDROOT
BRANCH   1   2
ATOM      2  C   UNL     1      -0.475  -6.687  15.912  0.00  0.00    +0.000 C 
ATOM      3  H   UNL     1      -1.305  -6.576  15.208  0.00  0.00    +0.000 HD
ATOM      4  H   UNL     1      -0.891  -6.846  16.910  0.00  0.00    +0.000 HD
ATOM      5  H   UNL     1       0.123  -7.563  15.646  0.00  0.00    +0.000 HD
ENDBRANCH   1   2
BRANCH   1   6
ATOM      6  S   UNL     1       1.843  -5.558  14.374  0.00  0.00    +0.000 S 
BRANCH   6   7
ATOM      7  C   UNL     1       1.935  -7.364  14.383  0.00  0.00    +0.000 C 
ATOM      8  H   UNL     1       1.631  -7.772  13.415  0.00  0.00    +0.000 HD
ATOM      9  H   UNL     1       1.255  -7.752  15.146  0.00  0.00    +0.000 HD
ATOM     10  H   UNL     1       2.948  -7.697  14.625  0.00  0.00    +0.000 HD
ENDBRANCH   6   7
ENDBRANCH   1   6
TORSDOF 3
ENDMDL
MODEL 8
REMARK VINA RESULT:    -1.703      2.187      2.187
REMARK INTER + INTRA:          -1.902
REMARK INTER:                  -1.902
REMARK INTRA:                   0.000
REMARK UNBOUND:                 0.000
REMARK  Name = 12232
REMARK  3 active torsions:
REMARK  status: ('A' for Active; 'I' for Inactive)
REMARK    1  A    between atoms: S_1  and  S_2
REMARK    2  A    between atoms: S_1  and  C_3
REMARK    3  A    between atoms: S_2  and  C_4
REMARK                            x       y       z     vdW  Elec       q    Type
REMARK                         _______ _______ _______ _____ _____    ______ ____
ROOT
ATOM      1  S   UNL     1       3.147 -13.738   3.157  0.00  0.00    +0.000 S 
ENDROOT
BRANCH   1   2
ATOM      2  C   UNL     1       2.704 -12.015   2.831  0.00  0.00    +0.000 C 
ATOM      3  H   UNL     1       2.315 -11.539   3.735  0.00  0.00    +0.000 HD
ATOM      4  H   UNL     1       1.924 -11.986   2.065  0.00  0.00    +0.000 HD
ATOM      5  H   UNL     1       3.569 -11.458   2.461  0.00  0.00    +0.000 HD
ENDBRANCH   1   2
BRANCH   1   6
ATOM      6  S   UNL     1       4.620 -14.064   1.761  0.00  0.00    +0.000 S 
BRANCH   6   7
ATOM      7  C   UNL     1       5.374 -12.425   1.631  0.00  0.00    +0.000 C 
ATOM      8  H   UNL     1       4.660 -11.702   1.227  0.00  0.00    +0.000 HD
ATOM      9  H   UNL     1       6.228 -12.479   0.950  0.00  0.00    +0.000 HD
ATOM     10  H   UNL     1       5.733 -12.088   2.607  0.00  0.00    +0.000 HD
ENDBRANCH   6   7
ENDBRANCH   1   6
TORSDOF 3
ENDMDL
MODEL 9
REMARK VINA RESULT:    -1.655      3.039      3.760
REMARK INTER + INTRA:          -1.849
REMARK INTER:                  -1.849
REMARK INTRA:                   0.000
REMARK UNBOUND:                 0.000
REMARK  Name = 12232
REMARK  3 active torsions:
REMARK  status: ('A' for Active; 'I' for Inactive)
REMARK    1  A    between atoms: S_1  and  S_2
REMARK    2  A    between atoms: S_1  and  C_3
REMARK    3  A    between atoms: S_2  and  C_4
REMARK                            x       y       z     vdW  Elec       q    Type
REMARK                         _______ _______ _______ _____ _____    ______ ____
ROOT
ATOM      1  S   UNL     1       6.690 -12.321   0.722  0.00  0.00    +0.000 S 
ENDROOT
BRANCH   1   2
ATOM      2  C   UNL     1       7.641 -11.217  -0.350  0.00  0.00    +0.000 C 
ATOM      3  H   UNL     1       8.240 -10.522   0.246  0.00  0.00    +0.000 HD
ATOM      4  H   UNL     1       6.950 -10.634  -0.964  0.00  0.00    +0.000 HD
ATOM      5  H   UNL     1       8.291 -11.792  -1.016  0.00  0.00    +0.000 HD
ENDBRANCH   1   2
BRANCH   1   6
ATOM      6  S   UNL     1       5.340 -13.129  -0.602  0.00  0.00    +0.000 S 
BRANCH   6   7
ATOM      7  C   UNL     1       4.287 -11.705  -0.969  0.00  0.00    +0.000 C 
ATOM      8  H   UNL     1       3.378 -12.021  -1.489  0.00  0.00    +0.000 HD
ATOM      9  H   UNL     1       4.832 -11.017  -1.621  0.00  0.00    +0.000 HD
ATOM     10  H   UNL     1       4.025 -11.172  -0.051  0.00  0.00    +0.000 HD
ENDBRANCH   6   7
ENDBRANCH   1   6
TORSDOF 3
ENDMDL
MODEL 10
REMARK VINA RESULT:    -1.640     25.897     26.415
REMARK INTER + INTRA:          -1.832
REMARK INTER:                  -1.832
REMARK INTRA:                   0.000
REMARK UNBOUND:                 0.000
REMARK  Name = 12232
REMARK  3 active torsions:
REMARK  status: ('A' for Active; 'I' for Inactive)
REMARK    1  A    between atoms: S_1  and  S_2
REMARK    2  A    between atoms: S_1  and  C_3
REMARK    3  A    between atoms: S_2  and  C_4
REMARK                            x       y       z     vdW  Elec       q    Type
REMARK                         _______ _______ _______ _____ _____    ______ ____
ROOT
ATOM      1  S   UNL     1      10.211  12.729  -4.216  0.00  0.00    +0.000 S 
ENDROOT
BRANCH   1   2
ATOM      2  C   UNL     1       8.740  12.021  -3.438  0.00  0.00    +0.000 C 
ATOM      3  H   UNL     1       8.290  11.261  -4.083  0.00  0.00    +0.000 HD
ATOM      4  H   UNL     1       8.005  12.814  -3.277  0.00  0.00    +0.000 HD
ATOM      5  H   UNL     1       8.991  11.584  -2.467  0.00  0.00    +0.000 HD
ENDBRANCH   1   2
BRANCH   1   6
ATOM      6  S   UNL     1       9.792  12.475  -6.213  0.00  0.00    +0.000 S 
BRANCH   6   7
ATOM      7  C   UNL     1      10.958  13.623  -6.983  0.00  0.00    +0.000 C 
ATOM      8  H   UNL     1      10.459  14.557  -7.256  0.00  0.00    +0.000 HD
ATOM      9  H   UNL     1      11.356  13.169  -7.895  0.00  0.00    +0.000 HD
ATOM     10  H   UNL     1      11.795  13.831  -6.311  0.00  0.00    +0.000 HD
ENDBRANCH   6   7
ENDBRANCH   1   6
TORSDOF 3
ENDMDL
