MODEL 1
REMARK VINA RESULT:    -4.531      0.000      0.000
REMARK INTER + INTRA:          -7.223
REMARK INTER:                  -6.842
REMARK INTRA:                  -0.381
REMARK UNBOUND:                -0.308
REMARK  Name = 7799
REMARK  10 active torsions:
REMARK  status: ('A' for Active; 'I' for Inactive)
REMARK    1  A    between atoms: O_1  and  C_10
REMARK    2  A    between atoms: O_1  and  C_11
REMARK    3  A    between atoms: C_3  and  C_4
REMARK    4  A    between atoms: C_3  and  C_5
REMARK    5  A    between atoms: C_4  and  C_6
REMARK    6  A    between atoms: C_5  and  C_7
REMARK    7  A    between atoms: C_6  and  C_8
REMARK    8  A    between atoms: C_7  and  C_9
REMARK    9  A    between atoms: C_8  and  C_10
REMARK   10  A    between atoms: C_11  and  C_12
REMARK                            x       y       z     vdW  Elec       q    Type
REMARK                         _______ _______ _______ _____ _____    ______ ____
ROOT
ATOM      1  C   UNL     1       8.402 -11.647  -0.974  0.00  0.00    +0.000 C 
ATOM      2  H   UNL     1       8.432 -11.475  -2.056  0.00  0.00    +0.000 HD
ATOM      3  H   UNL     1       9.420 -11.910  -0.658  0.00  0.00    +0.000 HD
ENDROOT
BRANCH   1   4
ATOM      4  C   UNL     1       7.956 -10.370  -0.260  0.00  0.00    +0.000 C 
ATOM      5  H   UNL     1       6.899 -10.176  -0.479  0.00  0.00    +0.000 HD
ATOM      6  H   UNL     1       8.043 -10.507   0.824  0.00  0.00    +0.000 HD
BRANCH   4   7
ATOM      7  C   UNL     1       8.799  -9.168  -0.693  0.00  0.00    +0.000 C 
ATOM      8  H   UNL     1       8.486  -8.278  -0.135  0.00  0.00    +0.000 HD
ATOM      9  H   UNL     1       8.624  -8.963  -1.756  0.00  0.00    +0.000 HD
BRANCH   7  10
ATOM     10  C   UNL     1      10.289  -9.423  -0.461  0.00  0.00    +0.000 C 
ATOM     11  H   UNL     1      10.444 -10.459  -0.137  0.00  0.00    +0.000 HD
ATOM     12  H   UNL     1      10.657  -8.773   0.340  0.00  0.00    +0.000 HD
BRANCH  10  13
ATOM     13  C   UNL     1      11.099  -9.173  -1.723  0.00  0.00    +0.000 C 
ATOM     14  H   UNL     1      11.683  -8.250  -1.637  0.00  0.00    +0.000 HD
ATOM     15  H   UNL     1      10.448  -9.087  -2.598  0.00  0.00    +0.000 HD
ATOM     16  H   UNL     1      11.795  -9.999  -1.897  0.00  0.00    +0.000 HD
ENDBRANCH  10  13
ENDBRANCH   7  10
ENDBRANCH   4   7
ENDBRANCH   1   4
BRANCH   1  17
ATOM     17  C   UNL     1       7.458 -12.814  -0.666  0.00  0.00    +0.000 C 
ATOM     18  H   UNL     1       6.979 -13.156  -1.592  0.00  0.00    +0.000 HD
ATOM     19  H   UNL     1       8.042 -13.663  -0.287  0.00  0.00    +0.000 HD
BRANCH  17  20
ATOM     20  C   UNL     1       6.381 -12.441   0.351  0.00  0.00    +0.000 C 
ATOM     21  H   UNL     1       6.430 -13.130   1.202  0.00  0.00    +0.000 HD
ATOM     22  H   UNL     1       6.556 -11.421   0.711  0.00  0.00    +0.000 HD
BRANCH  20  24
ATOM     23  O   UNL     1       4.673 -13.017  -1.282  0.00  0.00    +0.000 OA
ATOM     24  C   UNL     1       4.979 -12.505  -0.214  0.00  0.00    +0.000 C 
BRANCH  24  25
ATOM     25  O   UNL     1       4.115 -11.930   0.674  0.00  0.00    +0.000 OA
BRANCH  25  26
ATOM     26  C   UNL     1       4.162 -12.452   2.006  0.00  0.00    +0.000 C 
ATOM     27  H   UNL     1       4.283 -13.540   1.966  0.00  0.00    +0.000 HD
ATOM     28  H   UNL     1       5.010 -12.011   2.542  0.00  0.00    +0.000 HD
BRANCH  26  29
ATOM     29  C   UNL     1       2.871 -12.106   2.717  0.00  0.00    +0.000 C 
ATOM     30  H   UNL     1       2.895 -12.443   3.757  0.00  0.00    +0.000 HD
ATOM     31  H   UNL     1       2.700 -11.024   2.699  0.00  0.00    +0.000 HD
ATOM     32  H   UNL     1       2.017 -12.572   2.214  0.00  0.00    +0.000 HD
ENDBRANCH  26  29
ENDBRANCH  25  26
ENDBRANCH  24  25
ENDBRANCH  20  24
ENDBRANCH  17  20
ENDBRANCH   1  17
TORSDOF 10
ENDMDL
MODEL 2
REMARK VINA RESULT:    -4.476     17.180     18.398
REMARK INTER + INTRA:          -7.138
REMARK INTER:                  -6.304
REMARK INTRA:                  -0.834
REMARK UNBOUND:                -0.308
REMARK  Name = 7799
REMARK  10 active torsions:
REMARK  status: ('A' for Active; 'I' for Inactive)
REMARK    1  A    between atoms: O_1  and  C_10
REMARK    2  A    between atoms: O_1  and  C_11
REMARK    3  A    between atoms: C_3  and  C_4
REMARK    4  A    between atoms: C_3  and  C_5
REMARK    5  A    between atoms: C_4  and  C_6
REMARK    6  A    between atoms: C_5  and  C_7
REMARK    7  A    between atoms: C_6  and  C_8
REMARK    8  A    between atoms: C_7  and  C_9
REMARK    9  A    between atoms: C_8  and  C_10
REMARK   10  A    between atoms: C_11  and  C_12
REMARK                            x       y       z     vdW  Elec       q    Type
REMARK                         _______ _______ _______ _____ _____    ______ ____
ROOT
ATOM      1  C   UNL     1       0.286  -4.911  15.934  0.00  0.00    +0.000 C 
ATOM      2  H   UNL     1       0.980  -4.491  16.672  0.00  0.00    +0.000 HD
ATOM      3  H   UNL     1      -0.296  -4.077  15.523  0.00  0.00    +0.000 HD
ENDROOT
BRANCH   1   4
ATOM      4  C   UNL     1       1.075  -5.588  14.812  0.00  0.00    +0.000 C 
ATOM      5  H   UNL     1       1.416  -6.576  15.146  0.00  0.00    +0.000 HD
ATOM      6  H   UNL     1       0.419  -5.747  13.947  0.00  0.00    +0.000 HD
BRANCH   4   7
ATOM      7  C   UNL     1       2.280  -4.744  14.391  0.00  0.00    +0.000 C 
ATOM      8  H   UNL     1       2.267  -4.599  13.304  0.00  0.00    +0.000 HD
ATOM      9  H   UNL     1       3.205  -5.280  14.636  0.00  0.00    +0.000 HD
BRANCH   7  10
ATOM     10  C   UNL     1       2.277  -3.385  15.091  0.00  0.00    +0.000 C 
ATOM     11  H   UNL     1       2.188  -3.524  16.175  0.00  0.00    +0.000 HD
ATOM     12  H   UNL     1       1.409  -2.801  14.766  0.00  0.00    +0.000 HD
BRANCH  10  13
ATOM     13  C   UNL     1       3.547  -2.604  14.795  0.00  0.00    +0.000 C 
ATOM     14  H   UNL     1       4.375  -3.279  14.552  0.00  0.00    +0.000 HD
ATOM     15  H   UNL     1       3.842  -1.993  15.653  0.00  0.00    +0.000 HD
ATOM     16  H   UNL     1       3.391  -1.938  13.941  0.00  0.00    +0.000 HD
ENDBRANCH  10  13
ENDBRANCH   7  10
ENDBRANCH   4   7
ENDBRANCH   1   4
BRANCH   1  17
ATOM     17  C   UNL     1      -0.660  -5.899  16.623  0.00  0.00    +0.000 C 
ATOM     18  H   UNL     1      -0.571  -5.797  17.712  0.00  0.00    +0.000 HD
ATOM     19  H   UNL     1      -1.697  -5.645  16.370  0.00  0.00    +0.000 HD
BRANCH  17  20
ATOM     20  C   UNL     1      -0.380  -7.349  16.229  0.00  0.00    +0.000 C 
ATOM     21  H   UNL     1      -1.278  -7.783  15.776  0.00  0.00    +0.000 HD
ATOM     22  H   UNL     1       0.435  -7.377  15.495  0.00  0.00    +0.000 HD
BRANCH  20  24
ATOM     23  O   UNL     1      -0.388  -9.359  17.599  0.00  0.00    +0.000 OA
ATOM     24  C   UNL     1       0.015  -8.220  17.401  0.00  0.00    +0.000 C 
BRANCH  24  25
ATOM     25  O   UNL     1       0.912  -7.543  18.177  0.00  0.00    +0.000 OA
BRANCH  25  26
ATOM     26  C   UNL     1       2.288  -7.725  17.830  0.00  0.00    +0.000 C 
ATOM     27  H   UNL     1       2.738  -8.464  18.502  0.00  0.00    +0.000 HD
ATOM     28  H   UNL     1       2.360  -8.082  16.796  0.00  0.00    +0.000 HD
BRANCH  26  29
ATOM     29  C   UNL     1       3.011  -6.402  17.966  0.00  0.00    +0.000 C 
ATOM     30  H   UNL     1       3.786  -6.299  17.202  0.00  0.00    +0.000 HD
ATOM     31  H   UNL     1       2.307  -5.568  17.872  0.00  0.00    +0.000 HD
ATOM     32  H   UNL     1       3.475  -6.317  18.954  0.00  0.00    +0.000 HD
ENDBRANCH  26  29
ENDBRANCH  25  26
ENDBRANCH  24  25
ENDBRANCH  20  24
ENDBRANCH  17  20
ENDBRANCH   1  17
TORSDOF 10
ENDMDL
MODEL 3
REMARK VINA RESULT:    -4.258     13.575     14.520
REMARK INTER + INTRA:          -6.805
REMARK INTER:                  -6.171
REMARK INTRA:                  -0.634
REMARK UNBOUND:                -0.308
REMARK  Name = 7799
REMARK  10 active torsions:
REMARK  status: ('A' for Active; 'I' for Inactive)
REMARK    1  A    between atoms: O_1  and  C_10
REMARK    2  A    between atoms: O_1  and  C_11
REMARK    3  A    between atoms: C_3  and  C_4
REMARK    4  A    between atoms: C_3  and  C_5
REMARK    5  A    between atoms: C_4  and  C_6
REMARK    6  A    between atoms: C_5  and  C_7
REMARK    7  A    between atoms: C_6  and  C_8
REMARK    8  A    between atoms: C_7  and  C_9
REMARK    9  A    between atoms: C_8  and  C_10
REMARK   10  A    between atoms: C_11  and  C_12
REMARK                            x       y       z     vdW  Elec       q    Type
REMARK                         _______ _______ _______ _____ _____    ______ ____
ROOT
ATOM      1  C   UNL     1      -3.415  -9.229 -10.091  0.00  0.00    +0.000 C 
ATOM      2  H   UNL     1      -4.023  -8.869 -10.929  0.00  0.00    +0.000 HD
ATOM      3  H   UNL     1      -2.555  -9.761 -10.518  0.00  0.00    +0.000 HD
ENDROOT
BRANCH   1   4
ATOM      4  C   UNL     1      -2.923  -8.041  -9.262  0.00  0.00    +0.000 C 
ATOM      5  H   UNL     1      -3.309  -8.122  -8.238  0.00  0.00    +0.000 HD
ATOM      6  H   UNL     1      -1.829  -8.067  -9.199  0.00  0.00    +0.000 HD
BRANCH   4   7
ATOM      7  C   UNL     1      -3.369  -6.713  -9.876  0.00  0.00    +0.000 C 
ATOM      8  H   UNL     1      -2.844  -6.550 -10.824  0.00  0.00    +0.000 HD
ATOM      9  H   UNL     1      -3.091  -5.890  -9.206  0.00  0.00    +0.000 HD
BRANCH   7  10
ATOM     10  C   UNL     1      -4.879  -6.690 -10.113  0.00  0.00    +0.000 C 
ATOM     11  H   UNL     1      -5.222  -7.682 -10.428  0.00  0.00    +0.000 HD
ATOM     12  H   UNL     1      -5.118  -5.991 -10.922  0.00  0.00    +0.000 HD
BRANCH  10  13
ATOM     13  C   UNL     1      -5.633  -6.280  -8.858  0.00  0.00    +0.000 C 
ATOM     14  H   UNL     1      -5.680  -5.190  -8.768  0.00  0.00    +0.000 HD
ATOM     15  H   UNL     1      -5.150  -6.679  -7.962  0.00  0.00    +0.000 HD
ATOM     16  H   UNL     1      -6.658  -6.662  -8.891  0.00  0.00    +0.000 HD
ENDBRANCH  10  13
ENDBRANCH   7  10
ENDBRANCH   4   7
ENDBRANCH   1   4
BRANCH   1  17
ATOM     17  C   UNL     1      -4.239 -10.199  -9.238  0.00  0.00    +0.000 C 
ATOM     18  H   UNL     1      -5.309 -10.011  -9.396  0.00  0.00    +0.000 HD
ATOM     19  H   UNL     1      -4.051 -11.227  -9.575  0.00  0.00    +0.000 HD
BRANCH  17  20
ATOM     20  C   UNL     1      -3.920 -10.083  -7.749  0.00  0.00    +0.000 C 
ATOM     21  H   UNL     1      -3.204 -10.864  -7.468  0.00  0.00    +0.000 HD
ATOM     22  H   UNL     1      -3.473  -9.103  -7.546  0.00  0.00    +0.000 HD
BRANCH  20  24
ATOM     23  O   UNL     1      -6.014 -11.077  -7.009  0.00  0.00    +0.000 OA
ATOM     24  C   UNL     1      -5.139 -10.235  -6.864  0.00  0.00    +0.000 C 
BRANCH  24  25
ATOM     25  O   UNL     1      -5.082  -9.303  -5.867  0.00  0.00    +0.000 OA
BRANCH  25  26
ATOM     26  C   UNL     1      -6.320  -9.039  -5.199  0.00  0.00    +0.000 C 
ATOM     27  H   UNL     1      -7.047  -9.816  -5.458  0.00  0.00    +0.000 HD
ATOM     28  H   UNL     1      -6.158  -9.039  -4.115  0.00  0.00    +0.000 HD
BRANCH  26  29
ATOM     29  C   UNL     1      -6.839  -7.686  -5.638  0.00  0.00    +0.000 C 
ATOM     30  H   UNL     1      -6.422  -7.403  -6.607  0.00  0.00    +0.000 HD
ATOM     31  H   UNL     1      -7.931  -7.698  -5.711  0.00  0.00    +0.000 HD
ATOM     32  H   UNL     1      -6.578  -6.917  -4.902  0.00  0.00    +0.000 HD
ENDBRANCH  26  29
ENDBRANCH  25  26
ENDBRANCH  24  25
ENDBRANCH  20  24
ENDBRANCH  17  20
ENDBRANCH   1  17
TORSDOF 10
ENDMDL
MODEL 4
REMARK VINA RESULT:    -4.206     14.361     16.373
REMARK INTER + INTRA:          -6.727
REMARK INTER:                  -6.286
REMARK INTRA:                  -0.441
REMARK UNBOUND:                -0.308
REMARK  Name = 7799
REMARK  10 active torsions:
REMARK  status: ('A' for Active; 'I' for Inactive)
REMARK    1  A    between atoms: O_1  and  C_10
REMARK    2  A    between atoms: O_1  and  C_11
REMARK    3  A    between atoms: C_3  and  C_4
REMARK    4  A    between atoms: C_3  and  C_5
REMARK    5  A    between atoms: C_4  and  C_6
REMARK    6  A    between atoms: C_5  and  C_7
REMARK    7  A    between atoms: C_6  and  C_8
REMARK    8  A    between atoms: C_7  and  C_9
REMARK    9  A    between atoms: C_8  and  C_10
REMARK   10  A    between atoms: C_11  and  C_12
REMARK                            x       y       z     vdW  Elec       q    Type
REMARK                         _______ _______ _______ _____ _____    ______ ____
ROOT
ATOM      1  C   UNL     1       0.990  -6.589  15.093  0.00  0.00    +0.000 C 
ATOM      2  H   UNL     1       1.309  -6.599  16.142  0.00  0.00    +0.000 HD
ATOM      3  H   UNL     1      -0.064  -6.894  15.071  0.00  0.00    +0.000 HD
ENDROOT
BRANCH   1   4
ATOM      4  C   UNL     1       1.126  -5.174  14.526  0.00  0.00    +0.000 C 
ATOM      5  H   UNL     1       1.762  -5.196  13.632  0.00  0.00    +0.000 HD
ATOM      6  H   UNL     1       0.141  -4.808  14.214  0.00  0.00    +0.000 HD
BRANCH   4   7
ATOM      7  C   UNL     1       1.724  -4.217  15.559  0.00  0.00    +0.000 C 
ATOM      8  H   UNL     1       2.616  -4.669  16.008  0.00  0.00    +0.000 HD
ATOM      9  H   UNL     1       1.001  -4.054  16.367  0.00  0.00    +0.000 HD
BRANCH   7  10
ATOM     10  C   UNL     1       2.092  -2.875  14.925  0.00  0.00    +0.000 C 
ATOM     11  H   UNL     1       1.691  -2.054  15.530  0.00  0.00    +0.000 HD
ATOM     12  H   UNL     1       1.640  -2.798  13.930  0.00  0.00    +0.000 HD
BRANCH  10  13
ATOM     13  C   UNL     1       3.599  -2.712  14.805  0.00  0.00    +0.000 C 
ATOM     14  H   UNL     1       4.119  -3.616  15.138  0.00  0.00    +0.000 HD
ATOM     15  H   UNL     1       3.952  -1.870  15.408  0.00  0.00    +0.000 HD
ATOM     16  H   UNL     1       3.878  -2.525  13.763  0.00  0.00    +0.000 HD
ENDBRANCH  10  13
ENDBRANCH   7  10
ENDBRANCH   4   7
ENDBRANCH   1   4
BRANCH   1  17
ATOM     17  C   UNL     1       1.826  -7.592  14.291  0.00  0.00    +0.000 C 
ATOM     18  H   UNL     1       1.473  -8.611  14.494  0.00  0.00    +0.000 HD
ATOM     19  H   UNL     1       1.672  -7.416  13.218  0.00  0.00    +0.000 HD
BRANCH  17  20
ATOM     20  C   UNL     1       3.317  -7.500  14.614  0.00  0.00    +0.000 C 
ATOM     21  H   UNL     1       3.576  -6.460  14.841  0.00  0.00    +0.000 HD
ATOM     22  H   UNL     1       3.539  -8.120  15.491  0.00  0.00    +0.000 HD
BRANCH  20  24
ATOM     23  O   UNL     1       3.844  -8.669  12.547  0.00  0.00    +0.000 OA
ATOM     24  C   UNL     1       4.203  -7.961  13.478  0.00  0.00    +0.000 C 
BRANCH  24  25
ATOM     25  O   UNL     1       5.451  -7.432  13.645  0.00  0.00    +0.000 OA
BRANCH  25  26
ATOM     26  C   UNL     1       5.679  -6.774  14.896  0.00  0.00    +0.000 C 
ATOM     27  H   UNL     1       4.718  -6.489  15.338  0.00  0.00    +0.000 HD
ATOM     28  H   UNL     1       6.205  -7.453  15.576  0.00  0.00    +0.000 HD
BRANCH  26  29
ATOM     29  C   UNL     1       6.519  -5.537  14.656  0.00  0.00    +0.000 C 
ATOM     30  H   UNL     1       7.337  -5.474  15.379  0.00  0.00    +0.000 HD
ATOM     31  H   UNL     1       6.939  -5.547  13.645  0.00  0.00    +0.000 HD
ATOM     32  H   UNL     1       5.905  -4.634  14.737  0.00  0.00    +0.000 HD
ENDBRANCH  26  29
ENDBRANCH  25  26
ENDBRANCH  24  25
ENDBRANCH  20  24
ENDBRANCH  17  20
ENDBRANCH   1  17
TORSDOF 10
ENDMDL
MODEL 5
REMARK VINA RESULT:    -4.130     25.080     26.297
REMARK INTER + INTRA:          -6.611
REMARK INTER:                  -6.262
REMARK INTRA:                  -0.349
REMARK UNBOUND:                -0.308
REMARK  Name = 7799
REMARK  10 active torsions:
REMARK  status: ('A' for Active; 'I' for Inactive)
REMARK    1  A    between atoms: O_1  and  C_10
REMARK    2  A    between atoms: O_1  and  C_11
REMARK    3  A    between atoms: C_3  and  C_4
REMARK    4  A    between atoms: C_3  and  C_5
REMARK    5  A    between atoms: C_4  and  C_6
REMARK    6  A    between atoms: C_5  and  C_7
REMARK    7  A    between atoms: C_6  and  C_8
REMARK    8  A    between atoms: C_7  and  C_9
REMARK    9  A    between atoms: C_8  and  C_10
REMARK   10  A    between atoms: C_11  and  C_12
REMARK                            x       y       z     vdW  Elec       q    Type
REMARK                         _______ _______ _______ _____ _____    ______ ____
ROOT
ATOM      1  C   UNL     1       0.519  11.736  11.539  0.00  0.00    +0.000 C 
ATOM      2  H   UNL     1       0.803  12.350  12.402  0.00  0.00    +0.000 HD
ATOM      3  H   UNL     1       0.999  12.176  10.655  0.00  0.00    +0.000 HD
ENDROOT
BRANCH   1   4
ATOM      4  C   UNL     1       1.020  10.304  11.736  0.00  0.00    +0.000 C 
ATOM      5  H   UNL     1       0.737   9.949  12.735  0.00  0.00    +0.000 HD
ATOM      6  H   UNL     1       0.535   9.643  11.008  0.00  0.00    +0.000 HD
BRANCH   4   7
ATOM      7  C   UNL     1       2.539  10.219  11.572  0.00  0.00    +0.000 C 
ATOM      8  H   UNL     1       2.930  11.192  11.250  0.00  0.00    +0.000 HD
ATOM      9  H   UNL     1       2.781   9.496  10.784  0.00  0.00    +0.000 HD
BRANCH   7  10
ATOM     10  C   UNL     1       3.215   9.798  12.876  0.00  0.00    +0.000 C 
ATOM     11  H   UNL     1       2.699   8.930  13.301  0.00  0.00    +0.000 HD
ATOM     12  H   UNL     1       3.146  10.609  13.610  0.00  0.00    +0.000 HD
BRANCH  10  13
ATOM     13  C   UNL     1       4.678   9.446  12.656  0.00  0.00    +0.000 C 
ATOM     14  H   UNL     1       5.332  10.251  13.006  0.00  0.00    +0.000 HD
ATOM     15  H   UNL     1       4.885   9.271  11.596  0.00  0.00    +0.000 HD
ATOM     16  H   UNL     1       4.936   8.536  13.207  0.00  0.00    +0.000 HD
ENDBRANCH  10  13
ENDBRANCH   7  10
ENDBRANCH   4   7
ENDBRANCH   1   4
BRANCH   1  17
ATOM     17  C   UNL     1      -1.002  11.773  11.361  0.00  0.00    +0.000 C 
ATOM     18  H   UNL     1      -1.442  12.468  12.088  0.00  0.00    +0.000 HD
ATOM     19  H   UNL     1      -1.242  12.171  10.366  0.00  0.00    +0.000 HD
BRANCH  17  20
ATOM     20  C   UNL     1      -1.644  10.396  11.528  0.00  0.00    +0.000 C 
ATOM     21  H   UNL     1      -1.351   9.755  10.689  0.00  0.00    +0.000 HD
ATOM     22  H   UNL     1      -1.293   9.941  12.461  0.00  0.00    +0.000 HD
BRANCH  20  24
ATOM     23  O   UNL     1      -3.862  11.058  10.781  0.00  0.00    +0.000 OA
ATOM     24  C   UNL     1      -3.156  10.444  11.568  0.00  0.00    +0.000 C 
BRANCH  24  25
ATOM     25  O   UNL     1      -3.597   9.665  12.600  0.00  0.00    +0.000 OA
BRANCH  25  26
ATOM     26  C   UNL     1      -3.304  10.157  13.912  0.00  0.00    +0.000 C 
ATOM     27  H   UNL     1      -2.990   9.326  14.551  0.00  0.00    +0.000 HD
ATOM     28  H   UNL     1      -2.497  10.896  13.853  0.00  0.00    +0.000 HD
BRANCH  26  29
ATOM     29  C   UNL     1      -4.548  10.803  14.486  0.00  0.00    +0.000 C 
ATOM     30  H   UNL     1      -5.226  10.050  14.894  0.00  0.00    +0.000 HD
ATOM     31  H   UNL     1      -4.283  11.510  15.279  0.00  0.00    +0.000 HD
ATOM     32  H   UNL     1      -5.076  11.374  13.714  0.00  0.00    +0.000 HD
ENDBRANCH  26  29
ENDBRANCH  25  26
ENDBRANCH  24  25
ENDBRANCH  20  24
ENDBRANCH  17  20
ENDBRANCH   1  17
TORSDOF 10
ENDMDL
MODEL 6
REMARK VINA RESULT:    -4.070     23.688     25.110
REMARK INTER + INTRA:          -6.519
REMARK INTER:                  -6.274
REMARK INTRA:                  -0.245
REMARK UNBOUND:                -0.308
REMARK  Name = 7799
REMARK  10 active torsions:
REMARK  status: ('A' for Active; 'I' for Inactive)
REMARK    1  A    between atoms: O_1  and  C_10
REMARK    2  A    between atoms: O_1  and  C_11
REMARK    3  A    between atoms: C_3  and  C_4
REMARK    4  A    between atoms: C_3  and  C_5
REMARK    5  A    between atoms: C_4  and  C_6
REMARK    6  A    between atoms: C_5  and  C_7
REMARK    7  A    between atoms: C_6  and  C_8
REMARK    8  A    between atoms: C_7  and  C_9
REMARK    9  A    between atoms: C_8  and  C_10
REMARK   10  A    between atoms: C_11  and  C_12
REMARK                            x       y       z     vdW  Elec       q    Type
REMARK                         _______ _______ _______ _____ _____    ______ ____
ROOT
ATOM      1  C   UNL     1       8.071  13.225  -2.228  0.00  0.00    +0.000 C 
ATOM      2  H   UNL     1       7.164  13.560  -2.746  0.00  0.00    +0.000 HD
ATOM      3  H   UNL     1       8.788  14.054  -2.260  0.00  0.00    +0.000 HD
ENDROOT
BRANCH   1   4
ATOM      4  C   UNL     1       7.740  12.887  -0.774  0.00  0.00    +0.000 C 
ATOM      5  H   UNL     1       8.260  11.966  -0.483  0.00  0.00    +0.000 HD
ATOM      6  H   UNL     1       8.108  13.687  -0.120  0.00  0.00    +0.000 HD
BRANCH   4   7
ATOM      7  C   UNL     1       6.234  12.714  -0.572  0.00  0.00    +0.000 C 
ATOM      8  H   UNL     1       5.775  12.357  -1.502  0.00  0.00    +0.000 HD
ATOM      9  H   UNL     1       5.782  13.686  -0.340  0.00  0.00    +0.000 HD
BRANCH   7  10
ATOM     10  C   UNL     1       5.935  11.730   0.559  0.00  0.00    +0.000 C 
ATOM     11  H   UNL     1       6.597  10.860   0.482  0.00  0.00    +0.000 HD
ATOM     12  H   UNL     1       4.906  11.363   0.472  0.00  0.00    +0.000 HD
BRANCH  10  13
ATOM     13  C   UNL     1       6.123  12.375   1.923  0.00  0.00    +0.000 C 
ATOM     14  H   UNL     1       5.514  11.872   2.682  0.00  0.00    +0.000 HD
ATOM     15  H   UNL     1       5.840  13.432   1.900  0.00  0.00    +0.000 HD
ATOM     16  H   UNL     1       7.171  12.311   2.231  0.00  0.00    +0.000 HD
ENDBRANCH  10  13
ENDBRANCH   7  10
ENDBRANCH   4   7
ENDBRANCH   1   4
BRANCH   1  17
ATOM     17  C   UNL     1       8.661  12.015  -2.960  0.00  0.00    +0.000 C 
ATOM     18  H   UNL     1       9.098  11.321  -2.231  0.00  0.00    +0.000 HD
ATOM     19  H   UNL     1       7.854  11.468  -3.465  0.00  0.00    +0.000 HD
BRANCH  17  20
ATOM     20  C   UNL     1       9.726  12.412  -3.981  0.00  0.00    +0.000 C 
ATOM     21  H   UNL     1      10.148  13.385  -3.706  0.00  0.00    +0.000 HD
ATOM     22  H   UNL     1      10.529  11.665  -3.980  0.00  0.00    +0.000 HD
BRANCH  20  24
ATOM     23  O   UNL     1       8.032  12.791  -5.685  0.00  0.00    +0.000 OA
ATOM     24  C   UNL     1       9.189  12.522  -5.391  0.00  0.00    +0.000 C 
BRANCH  24  25
ATOM     25  O   UNL     1      10.209  12.306  -6.273  0.00  0.00    +0.000 OA
BRANCH  25  26
ATOM     26  C   UNL     1      10.839  13.483  -6.787  0.00  0.00    +0.000 C 
ATOM     27  H   UNL     1      10.657  14.321  -6.106  0.00  0.00    +0.000 HD
ATOM     28  H   UNL     1      11.918  13.312  -6.874  0.00  0.00    +0.000 HD
BRANCH  26  29
ATOM     29  C   UNL     1      10.260  13.797  -8.151  0.00  0.00    +0.000 C 
ATOM     30  H   UNL     1      10.859  13.343  -8.944  0.00  0.00    +0.000 HD
ATOM     31  H   UNL     1       9.232  13.427  -8.226  0.00  0.00    +0.000 HD
ATOM     32  H   UNL     1      10.221  14.880  -8.312  0.00  0.00    +0.000 HD
ENDBRANCH  26  29
ENDBRANCH  25  26
ENDBRANCH  24  25
ENDBRANCH  20  24
ENDBRANCH  17  20
ENDBRANCH   1  17
TORSDOF 10
ENDMDL
MODEL 7
REMARK VINA RESULT:    -4.064     23.574     24.585
REMARK INTER + INTRA:          -6.510
REMARK INTER:                  -6.179
REMARK INTRA:                  -0.331
REMARK UNBOUND:                -0.308
REMARK  Name = 7799
REMARK  10 active torsions:
REMARK  status: ('A' for Active; 'I' for Inactive)
REMARK    1  A    between atoms: O_1  and  C_10
REMARK    2  A    between atoms: O_1  and  C_11
REMARK    3  A    between atoms: C_3  and  C_4
REMARK    4  A    between atoms: C_3  and  C_5
REMARK    5  A    between atoms: C_4  and  C_6
REMARK    6  A    between atoms: C_5  and  C_7
REMARK    7  A    between atoms: C_6  and  C_8
REMARK    8  A    between atoms: C_7  and  C_9
REMARK    9  A    between atoms: C_8  and  C_10
REMARK   10  A    between atoms: C_11  and  C_12
REMARK                            x       y       z     vdW  Elec       q    Type
REMARK                         _______ _______ _______ _____ _____    ______ ____
ROOT
ATOM      1  C   UNL     1      10.408  12.694  -4.127  0.00  0.00    +0.000 C 
ATOM      2  H   UNL     1      11.119  11.927  -3.798  0.00  0.00    +0.000 HD
ATOM      3  H   UNL     1      10.594  13.591  -3.522  0.00  0.00    +0.000 HD
ENDROOT
BRANCH   1   4
ATOM      4  C   UNL     1      10.640  13.014  -5.604  0.00  0.00    +0.000 C 
ATOM      5  H   UNL     1      10.657  14.101  -5.748  0.00  0.00    +0.000 HD
ATOM      6  H   UNL     1      11.621  12.632  -5.911  0.00  0.00    +0.000 HD
BRANCH   4   7
ATOM      7  C   UNL     1       9.552  12.396  -6.485  0.00  0.00    +0.000 C 
ATOM      8  H   UNL     1       8.715  12.066  -5.859  0.00  0.00    +0.000 HD
ATOM      9  H   UNL     1       9.951  11.506  -6.988  0.00  0.00    +0.000 HD
BRANCH   7  10
ATOM     10  C   UNL     1       9.052  13.392  -7.531  0.00  0.00    +0.000 C 
ATOM     11  H   UNL     1       8.534  14.222  -7.037  0.00  0.00    +0.000 HD
ATOM     12  H   UNL     1       8.328  12.905  -8.192  0.00  0.00    +0.000 HD
BRANCH  10  13
ATOM     13  C   UNL     1      10.197  13.948  -8.363  0.00  0.00    +0.000 C 
ATOM     14  H   UNL     1       9.827  14.646  -9.121  0.00  0.00    +0.000 HD
ATOM     15  H   UNL     1      10.739  13.145  -8.870  0.00  0.00    +0.000 HD
ATOM     16  H   UNL     1      10.904  14.485  -7.723  0.00  0.00    +0.000 HD
ENDBRANCH  10  13
ENDBRANCH   7  10
ENDBRANCH   4   7
ENDBRANCH   1   4
BRANCH   1  17
ATOM     17  C   UNL     1       8.976  12.206  -3.882  0.00  0.00    +0.000 C 
ATOM     18  H   UNL     1       8.265  12.992  -4.167  0.00  0.00    +0.000 HD
ATOM     19  H   UNL     1       8.769  11.348  -4.535  0.00  0.00    +0.000 HD
BRANCH  17  20
ATOM     20  C   UNL     1       8.735  11.810  -2.427  0.00  0.00    +0.000 C 
ATOM     21  H   UNL     1       8.518  10.737  -2.373  0.00  0.00    +0.000 HD
ATOM     22  H   UNL     1       9.635  12.020  -1.837  0.00  0.00    +0.000 HD
BRANCH  20  24
ATOM     23  O   UNL     1       6.999  13.508  -2.283  0.00  0.00    +0.000 OA
ATOM     24  C   UNL     1       7.576  12.548  -1.792  0.00  0.00    +0.000 C 
BRANCH  24  25
ATOM     25  O   UNL     1       7.264  11.947  -0.605  0.00  0.00    +0.000 OA
BRANCH  25  26
ATOM     26  C   UNL     1       6.021  12.348  -0.020  0.00  0.00    +0.000 C 
ATOM     27  H   UNL     1       5.674  13.270  -0.498  0.00  0.00    +0.000 HD
ATOM     28  H   UNL     1       5.276  11.559  -0.167  0.00  0.00    +0.000 HD
BRANCH  26  29
ATOM     29  C   UNL     1       6.227  12.586   1.461  0.00  0.00    +0.000 C 
ATOM     30  H   UNL     1       6.341  11.640   1.997  0.00  0.00    +0.000 HD
ATOM     31  H   UNL     1       7.119  13.199   1.632  0.00  0.00    +0.000 HD
ATOM     32  H   UNL     1       5.379  13.133   1.885  0.00  0.00    +0.000 HD
ENDBRANCH  26  29
ENDBRANCH  25  26
ENDBRANCH  24  25
ENDBRANCH  20  24
ENDBRANCH  17  20
ENDBRANCH   1  17
TORSDOF 10
ENDMDL
MODEL 8
REMARK VINA RESULT:    -4.048     23.793     24.928
REMARK INTER + INTRA:          -6.486
REMARK INTER:                  -6.163
REMARK INTRA:                  -0.323
REMARK UNBOUND:                -0.308
REMARK  Name = 7799
REMARK  10 active torsions:
REMARK  status: ('A' for Active; 'I' for Inactive)
REMARK    1  A    between atoms: O_1  and  C_10
REMARK    2  A    between atoms: O_1  and  C_11
REMARK    3  A    between atoms: C_3  and  C_4
REMARK    4  A    between atoms: C_3  and  C_5
REMARK    5  A    between atoms: C_4  and  C_6
REMARK    6  A    between atoms: C_5  and  C_7
REMARK    7  A    between atoms: C_6  and  C_8
REMARK    8  A    between atoms: C_7  and  C_9
REMARK    9  A    between atoms: C_8  and  C_10
REMARK   10  A    between atoms: C_11  and  C_12
REMARK                            x       y       z     vdW  Elec       q    Type
REMARK                         _______ _______ _______ _____ _____    ______ ____
ROOT
ATOM      1  C   UNL     1       8.541  12.888  -2.319  0.00  0.00    +0.000 C 
ATOM      2  H   UNL     1       7.834  13.666  -2.630  0.00  0.00    +0.000 HD
ATOM      3  H   UNL     1       9.438  13.396  -1.941  0.00  0.00    +0.000 HD
ENDROOT
BRANCH   1   4
ATOM      4  C   UNL     1       7.922  12.042  -1.205  0.00  0.00    +0.000 C 
ATOM      5  H   UNL     1       7.414  11.173  -1.642  0.00  0.00    +0.000 HD
ATOM      6  H   UNL     1       8.715  11.659  -0.552  0.00  0.00    +0.000 HD
BRANCH   4   7
ATOM      7  C   UNL     1       6.926  12.857  -0.377  0.00  0.00    +0.000 C 
ATOM      8  H   UNL     1       6.456  13.619  -1.010  0.00  0.00    +0.000 HD
ATOM      9  H   UNL     1       7.461  13.385   0.422  0.00  0.00    +0.000 HD
BRANCH   7  10
ATOM     10  C   UNL     1       5.850  11.961   0.236  0.00  0.00    +0.000 C 
ATOM     11  H   UNL     1       5.992  10.927  -0.096  0.00  0.00    +0.000 HD
ATOM     12  H   UNL     1       4.860  12.280  -0.109  0.00  0.00    +0.000 HD
BRANCH  10  13
ATOM     13  C   UNL     1       5.889  12.004   1.755  0.00  0.00    +0.000 C 
ATOM     14  H   UNL     1       4.962  11.607   2.182  0.00  0.00    +0.000 HD
ATOM     15  H   UNL     1       6.022  13.028   2.116  0.00  0.00    +0.000 HD
ATOM     16  H   UNL     1       6.721  11.400   2.130  0.00  0.00    +0.000 HD
ENDBRANCH  10  13
ENDBRANCH   7  10
ENDBRANCH   4   7
ENDBRANCH   1   4
BRANCH   1  17
ATOM     17  C   UNL     1       8.919  12.025  -3.527  0.00  0.00    +0.000 C 
ATOM     18  H   UNL     1       9.095  10.991  -3.202  0.00  0.00    +0.000 HD
ATOM     19  H   UNL     1       8.075  11.992  -4.227  0.00  0.00    +0.000 HD
BRANCH  17  20
ATOM     20  C   UNL     1      10.161  12.544  -4.250  0.00  0.00    +0.000 C 
ATOM     21  H   UNL     1      10.453  13.511  -3.824  0.00  0.00    +0.000 HD
ATOM     22  H   UNL     1      10.986  11.834  -4.115  0.00  0.00    +0.000 HD
BRANCH  20  24
ATOM     23  O   UNL     1      10.818  13.058  -6.535  0.00  0.00    +0.000 OA
ATOM     24  C   UNL     1       9.949  12.738  -5.736  0.00  0.00    +0.000 C 
BRANCH  24  25
ATOM     25  O   UNL     1       8.645  12.467  -6.037  0.00  0.00    +0.000 OA
BRANCH  25  26
ATOM     26  C   UNL     1       7.923  13.533  -6.663  0.00  0.00    +0.000 C 
ATOM     27  H   UNL     1       8.332  14.493  -6.333  0.00  0.00    +0.000 HD
ATOM     28  H   UNL     1       8.019  13.450  -7.751  0.00  0.00    +0.000 HD
BRANCH  26  29
ATOM     29  C   UNL     1       6.464  13.437  -6.271  0.00  0.00    +0.000 C 
ATOM     30  H   UNL     1       6.214  12.427  -5.935  0.00  0.00    +0.000 HD
ATOM     31  H   UNL     1       6.234  14.144  -5.467  0.00  0.00    +0.000 HD
ATOM     32  H   UNL     1       5.820  13.698  -7.117  0.00  0.00    +0.000 HD
ENDBRANCH  26  29
ENDBRANCH  25  26
ENDBRANCH  24  25
ENDBRANCH  20  24
ENDBRANCH  17  20
ENDBRANCH   1  17
TORSDOF 10
ENDMDL
MODEL 9
REMARK VINA RESULT:    -4.036      4.758      8.107
REMARK INTER + INTRA:          -6.468
REMARK INTER:                  -5.960
REMARK INTRA:                  -0.508
REMARK UNBOUND:                -0.308
REMARK  Name = 7799
REMARK  10 active torsions:
REMARK  status: ('A' for Active; 'I' for Inactive)
REMARK    1  A    between atoms: O_1  and  C_10
REMARK    2  A    between atoms: O_1  and  C_11
REMARK    3  A    between atoms: C_3  and  C_4
REMARK    4  A    between atoms: C_3  and  C_5
REMARK    5  A    between atoms: C_4  and  C_6
REMARK    6  A    between atoms: C_5  and  C_7
REMARK    7  A    between atoms: C_6  and  C_8
REMARK    8  A    between atoms: C_7  and  C_9
REMARK    9  A    between atoms: C_8  and  C_10
REMARK   10  A    between atoms: C_11  and  C_12
REMARK                            x       y       z     vdW  Elec       q    Type
REMARK                         _______ _______ _______ _____ _____    ______ ____
ROOT
ATOM      1  C   UNL     1      11.670  -9.313  -2.286  0.00  0.00    +0.000 C 
ATOM      2  H   UNL     1      11.795  -8.662  -3.159  0.00  0.00    +0.000 HD
ATOM      3  H   UNL     1      12.649  -9.394  -1.797  0.00  0.00    +0.000 HD
ENDROOT
BRANCH   1   4
ATOM      4  C   UNL     1      10.662  -8.690  -1.318  0.00  0.00    +0.000 C 
ATOM      5  H   UNL     1      11.172  -7.965  -0.672  0.00  0.00    +0.000 HD
ATOM      6  H   UNL     1       9.902  -8.140  -1.885  0.00  0.00    +0.000 HD
BRANCH   4   7
ATOM      7  C   UNL     1       9.985  -9.758  -0.457  0.00  0.00    +0.000 C 
ATOM      8  H   UNL     1      10.341  -9.678   0.577  0.00  0.00    +0.000 HD
ATOM      9  H   UNL     1      10.267 -10.753  -0.820  0.00  0.00    +0.000 HD
BRANCH   7  10
ATOM     10  C   UNL     1       8.463  -9.615  -0.490  0.00  0.00    +0.000 C 
ATOM     11  H   UNL     1       8.160  -9.068  -1.390  0.00  0.00    +0.000 HD
ATOM     12  H   UNL     1       8.126  -9.033   0.374  0.00  0.00    +0.000 HD
BRANCH  10  13
ATOM     13  C   UNL     1       7.777 -10.972  -0.480  0.00  0.00    +0.000 C 
ATOM     14  H   UNL     1       7.578 -11.318  -1.500  0.00  0.00    +0.000 HD
ATOM     15  H   UNL     1       6.826 -10.927   0.060  0.00  0.00    +0.000 HD
ATOM     16  H   UNL     1       8.413 -11.714   0.012  0.00  0.00    +0.000 HD
ENDBRANCH  10  13
ENDBRANCH   7  10
ENDBRANCH   4   7
ENDBRANCH   1   4
BRANCH   1  17
ATOM     17  C   UNL     1      11.215 -10.703  -2.743  0.00  0.00    +0.000 C 
ATOM     18  H   UNL     1      11.127 -11.367  -1.873  0.00  0.00    +0.000 HD
ATOM     19  H   UNL     1      10.211 -10.630  -3.182  0.00  0.00    +0.000 HD
BRANCH  17  20
ATOM     20  C   UNL     1      12.172 -11.326  -3.758  0.00  0.00    +0.000 C 
ATOM     21  H   UNL     1      13.139 -11.515  -3.278  0.00  0.00    +0.000 HD
ATOM     22  H   UNL     1      11.760 -12.279  -4.111  0.00  0.00    +0.000 HD
BRANCH  20  24
ATOM     23  O   UNL     1      11.560 -10.083  -5.758  0.00  0.00    +0.000 OA
ATOM     24  C   UNL     1      12.417 -10.447  -4.965  0.00  0.00    +0.000 C 
BRANCH  24  25
ATOM     25  O   UNL     1      13.739 -10.102  -5.001  0.00  0.00    +0.000 OA
BRANCH  25  26
ATOM     26  C   UNL     1      14.628 -10.999  -4.330  0.00  0.00    +0.000 C 
ATOM     27  H   UNL     1      15.227 -10.442  -3.601  0.00  0.00    +0.000 HD
ATOM     28  H   UNL     1      14.047 -11.770  -3.811  0.00  0.00    +0.000 HD
BRANCH  26  29
ATOM     29  C   UNL     1      15.539 -11.647  -5.351  0.00  0.00    +0.000 C 
ATOM     30  H   UNL     1      16.436 -12.051  -4.875  0.00  0.00    +0.000 HD
ATOM     31  H   UNL     1      15.018 -12.458  -5.872  0.00  0.00    +0.000 HD
ATOM     32  H   UNL     1      15.840 -10.921  -6.114  0.00  0.00    +0.000 HD
ENDBRANCH  26  29
ENDBRANCH  25  26
ENDBRANCH  24  25
ENDBRANCH  20  24
ENDBRANCH  17  20
ENDBRANCH   1  17
TORSDOF 10
ENDMDL
MODEL 10
REMARK VINA RESULT:    -3.947     23.443     24.801
REMARK INTER + INTRA:          -6.331
REMARK INTER:                  -6.024
REMARK INTRA:                  -0.308
REMARK UNBOUND:                -0.308
REMARK  Name = 7799
REMARK  10 active torsions:
REMARK  status: ('A' for Active; 'I' for Inactive)
REMARK    1  A    between atoms: O_1  and  C_10
REMARK    2  A    between atoms: O_1  and  C_11
REMARK    3  A    between atoms: C_3  and  C_4
REMARK    4  A    between atoms: C_3  and  C_5
REMARK    5  A    between atoms: C_4  and  C_6
REMARK    6  A    between atoms: C_5  and  C_7
REMARK    7  A    between atoms: C_6  and  C_8
REMARK    8  A    between atoms: C_7  and  C_9
REMARK    9  A    between atoms: C_8  and  C_10
REMARK   10  A    between atoms: C_11  and  C_12
REMARK                            x       y       z     vdW  Elec       q    Type
REMARK                         _______ _______ _______ _____ _____    ______ ____
ROOT
ATOM      1  C   UNL     1       5.801  11.571   1.737  0.00  0.00    +0.000 C 
ATOM      2  H   UNL     1       6.766  11.164   2.059  0.00  0.00    +0.000 HD
ATOM      3  H   UNL     1       5.048  10.788   1.897  0.00  0.00    +0.000 HD
ENDROOT
BRANCH   1   4
ATOM      4  C   UNL     1       5.451  12.799   2.578  0.00  0.00    +0.000 C 
ATOM      5  H   UNL     1       6.133  12.865   3.435  0.00  0.00    +0.000 HD
ATOM      6  H   UNL     1       5.596  13.706   1.979  0.00  0.00    +0.000 HD
BRANCH   4   7
ATOM      7  C   UNL     1       4.005  12.740   3.075  0.00  0.00    +0.000 C 
ATOM      8  H   UNL     1       3.884  13.405   3.939  0.00  0.00    +0.000 HD
ATOM      9  H   UNL     1       3.778  11.723   3.416  0.00  0.00    +0.000 HD
BRANCH   7  10
ATOM     10  C   UNL     1       3.023  13.141   1.975  0.00  0.00    +0.000 C 
ATOM     11  H   UNL     1       2.948  12.340   1.232  0.00  0.00    +0.000 HD
ATOM     12  H   UNL     1       3.391  14.033   1.455  0.00  0.00    +0.000 HD
BRANCH  10  13
ATOM     13  C   UNL     1       1.640  13.425   2.540  0.00  0.00    +0.000 C 
ATOM     14  H   UNL     1       0.921  12.665   2.216  0.00  0.00    +0.000 HD
ATOM     15  H   UNL     1       1.276  14.403   2.215  0.00  0.00    +0.000 HD
ATOM     16  H   UNL     1       1.670  13.419   3.634  0.00  0.00    +0.000 HD
ENDBRANCH  10  13
ENDBRANCH   7  10
ENDBRANCH   4   7
ENDBRANCH   1   4
BRANCH   1  17
ATOM     17  C   UNL     1       5.862  11.917   0.246  0.00  0.00    +0.000 C 
ATOM     18  H   UNL     1       6.094  11.014  -0.334  0.00  0.00    +0.000 HD
ATOM     19  H   UNL     1       4.873  12.257  -0.089  0.00  0.00    +0.000 HD
BRANCH  17  20
ATOM     20  C   UNL     1       6.902  12.994  -0.062  0.00  0.00    +0.000 C 
ATOM     21  H   UNL     1       6.504  13.975   0.223  0.00  0.00    +0.000 HD
ATOM     22  H   UNL     1       7.812  12.800   0.518  0.00  0.00    +0.000 HD
BRANCH  20  24
ATOM     23  O   UNL     1       6.552  13.442  -2.427  0.00  0.00    +0.000 OA
ATOM     24  C   UNL     1       7.282  13.056  -1.525  0.00  0.00    +0.000 C 
BRANCH  24  25
ATOM     25  O   UNL     1       8.577  12.644  -1.664  0.00  0.00    +0.000 OA
BRANCH  25  26
ATOM     26  C   UNL     1       8.817  11.714  -2.726  0.00  0.00    +0.000 C 
ATOM     27  H   UNL     1       9.336  10.835  -2.329  0.00  0.00    +0.000 HD
ATOM     28  H   UNL     1       7.861  11.406  -3.164  0.00  0.00    +0.000 HD
BRANCH  26  29
ATOM     29  C   UNL     1       9.673  12.381  -3.782  0.00  0.00    +0.000 C 
ATOM     30  H   UNL     1      10.283  11.646  -4.312  0.00  0.00    +0.000 HD
ATOM     31  H   UNL     1       9.046  12.911  -4.507  0.00  0.00    +0.000 HD
ATOM     32  H   UNL     1      10.333  13.128  -3.327  0.00  0.00    +0.000 HD
ENDBRANCH  26  29
ENDBRANCH  25  26
ENDBRANCH  24  25
ENDBRANCH  20  24
ENDBRANCH  17  20
ENDBRANCH   1  17
TORSDOF 10
ENDMDL
