MODEL 1
REMARK VINA RESULT:    -4.368      0.000      0.000
REMARK INTER + INTRA:          -6.601
REMARK INTER:                  -6.274
REMARK INTRA:                  -0.328
REMARK UNBOUND:                -0.191
REMARK  Name = 7797
REMARK  9 active torsions:
REMARK  status: ('A' for Active; 'I' for Inactive)
REMARK    1  A    between atoms: O_1  and  C_9
REMARK    2  A    between atoms: O_1  and  C_10
REMARK    3  A    between atoms: C_3  and  C_4
REMARK    4  A    between atoms: C_3  and  C_5
REMARK    5  A    between atoms: C_4  and  C_6
REMARK    6  A    between atoms: C_5  and  C_7
REMARK    7  A    between atoms: C_6  and  C_8
REMARK    8  A    between atoms: C_7  and  C_9
REMARK    9  A    between atoms: C_10  and  C_11
REMARK                            x       y       z     vdW  Elec       q    Type
REMARK                         _______ _______ _______ _____ _____    ______ ____
ROOT
ATOM      1  C   UNL     1       5.812  -3.230   0.885  0.00  0.00    +0.000 C 
ATOM      2  H   UNL     1       5.346  -2.458   1.511  0.00  0.00    +0.000 HD
ATOM      3  H   UNL     1       6.086  -4.053   1.556  0.00  0.00    +0.000 HD
ENDROOT
BRANCH   1   4
ATOM      4  C   UNL     1       4.801  -3.730  -0.151  0.00  0.00    +0.000 C 
ATOM      5  H   UNL     1       5.261  -4.511  -0.767  0.00  0.00    +0.000 HD
ATOM      6  H   UNL     1       3.946  -4.184   0.364  0.00  0.00    +0.000 HD
BRANCH   4   7
ATOM      7  C   UNL     1       4.312  -2.587  -1.045  0.00  0.00    +0.000 C 
ATOM      8  H   UNL     1       4.771  -1.644  -0.722  0.00  0.00    +0.000 HD
ATOM      9  H   UNL     1       4.636  -2.767  -2.078  0.00  0.00    +0.000 HD
BRANCH   7  10
ATOM     10  C   UNL     1       2.791  -2.457  -0.999  0.00  0.00    +0.000 C 
ATOM     11  H   UNL     1       2.401  -2.961  -0.107  0.00  0.00    +0.000 HD
ATOM     12  H   UNL     1       2.348  -2.952  -1.871  0.00  0.00    +0.000 HD
BRANCH  10  13
ATOM     13  C   UNL     1       2.357  -1.000  -0.981  0.00  0.00    +0.000 C 
ATOM     14  H   UNL     1       2.883  -0.425  -1.749  0.00  0.00    +0.000 HD
ATOM     15  H   UNL     1       2.579  -0.550  -0.008  0.00  0.00    +0.000 HD
ATOM     16  H   UNL     1       1.281  -0.908  -1.160  0.00  0.00    +0.000 HD
ENDBRANCH  10  13
ENDBRANCH   7  10
ENDBRANCH   4   7
ENDBRANCH   1   4
BRANCH   1  17
ATOM     17  C   UNL     1       7.077  -2.662   0.239  0.00  0.00    +0.000 C 
ATOM     18  H   UNL     1       6.809  -1.827  -0.419  0.00  0.00    +0.000 HD
ATOM     19  H   UNL     1       7.749  -2.293   1.023  0.00  0.00    +0.000 HD
BRANCH  17  21
ATOM     20  O   UNL     1       8.118  -4.811  -0.221  0.00  0.00    +0.000 OA
ATOM     21  C   UNL     1       7.833  -3.679  -0.586  0.00  0.00    +0.000 C 
BRANCH  21  22
ATOM     22  O   UNL     1       8.168  -3.117  -1.786  0.00  0.00    +0.000 OA
BRANCH  22  23
ATOM     23  C   UNL     1       9.559  -2.839  -1.968  0.00  0.00    +0.000 C 
ATOM     24  H   UNL     1      10.130  -3.306  -1.158  0.00  0.00    +0.000 HD
ATOM     25  H   UNL     1       9.889  -3.259  -2.926  0.00  0.00    +0.000 HD
BRANCH  23  26
ATOM     26  C   UNL     1       9.777  -1.365  -1.959  0.00  0.00    +0.000 C 
ATOM     27  H   UNL     1      10.425  -1.065  -1.129  0.00  0.00    +0.000 HD
ATOM     28  H   UNL     1      10.236  -1.032  -2.896  0.00  0.00    +0.000 HD
ATOM     29  H   UNL     1       8.825  -0.830  -1.868  0.00  0.00    +0.000 HD
ENDBRANCH  23  26
ENDBRANCH  22  23
ENDBRANCH  21  22
ENDBRANCH  17  21
ENDBRANCH   1  17
TORSDOF 9
ENDMDL
MODEL 2
REMARK VINA RESULT:    -4.241      8.261     10.368
REMARK INTER + INTRA:          -6.415
REMARK INTER:                  -6.194
REMARK INTRA:                  -0.221
REMARK UNBOUND:                -0.191
REMARK  Name = 7797
REMARK  9 active torsions:
REMARK  status: ('A' for Active; 'I' for Inactive)
REMARK    1  A    between atoms: O_1  and  C_9
REMARK    2  A    between atoms: O_1  and  C_10
REMARK    3  A    between atoms: C_3  and  C_4
REMARK    4  A    between atoms: C_3  and  C_5
REMARK    5  A    between atoms: C_4  and  C_6
REMARK    6  A    between atoms: C_5  and  C_7
REMARK    7  A    between atoms: C_6  and  C_8
REMARK    8  A    between atoms: C_7  and  C_9
REMARK    9  A    between atoms: C_10  and  C_11
REMARK                            x       y       z     vdW  Elec       q    Type
REMARK                         _______ _______ _______ _____ _____    ______ ____
ROOT
ATOM      1  C   UNL     1       7.706 -12.257   0.574  0.00  0.00    +0.000 C 
ATOM      2  H   UNL     1       7.648 -13.272   0.160  0.00  0.00    +0.000 HD
ATOM      3  H   UNL     1       8.693 -12.167   1.045  0.00  0.00    +0.000 HD
ENDROOT
BRANCH   1   4
ATOM      4  C   UNL     1       7.585 -11.232  -0.558  0.00  0.00    +0.000 C 
ATOM      5  H   UNL     1       7.204 -11.726  -1.461  0.00  0.00    +0.000 HD
ATOM      6  H   UNL     1       6.856 -10.462  -0.278  0.00  0.00    +0.000 HD
BRANCH   4   7
ATOM      7  C   UNL     1       8.934 -10.576  -0.859  0.00  0.00    +0.000 C 
ATOM      8  H   UNL     1       9.713 -11.033  -0.236  0.00  0.00    +0.000 HD
ATOM      9  H   UNL     1       9.207 -10.764  -1.906  0.00  0.00    +0.000 HD
BRANCH   7  10
ATOM     10  C   UNL     1       8.890  -9.071  -0.601  0.00  0.00    +0.000 C 
ATOM     11  H   UNL     1       8.711  -8.881   0.463  0.00  0.00    +0.000 HD
ATOM     12  H   UNL     1       8.058  -8.623  -1.156  0.00  0.00    +0.000 HD
BRANCH  10  13
ATOM     13  C   UNL     1      10.187  -8.396  -1.019  0.00  0.00    +0.000 C 
ATOM     14  H   UNL     1      10.950  -8.498  -0.242  0.00  0.00    +0.000 HD
ATOM     15  H   UNL     1      10.019  -7.329  -1.193  0.00  0.00    +0.000 HD
ATOM     16  H   UNL     1      10.577  -8.834  -1.943  0.00  0.00    +0.000 HD
ENDBRANCH  10  13
ENDBRANCH   7  10
ENDBRANCH   4   7
ENDBRANCH   1   4
BRANCH   1  17
ATOM     17  C   UNL     1       6.621 -12.082   1.638  0.00  0.00    +0.000 C 
ATOM     18  H   UNL     1       6.974 -12.492   2.592  0.00  0.00    +0.000 HD
ATOM     19  H   UNL     1       6.413 -11.013   1.769  0.00  0.00    +0.000 HD
BRANCH  17  21
ATOM     20  O   UNL     1       5.218 -13.733   0.534  0.00  0.00    +0.000 OA
ATOM     21  C   UNL     1       5.324 -12.773   1.286  0.00  0.00    +0.000 C 
BRANCH  21  22
ATOM     22  O   UNL     1       4.294 -12.135   1.918  0.00  0.00    +0.000 OA
BRANCH  22  23
ATOM     23  C   UNL     1       3.561 -12.928   2.857  0.00  0.00    +0.000 C 
ATOM     24  H   UNL     1       3.737 -13.989   2.649  0.00  0.00    +0.000 HD
ATOM     25  H   UNL     1       3.909 -12.700   3.871  0.00  0.00    +0.000 HD
BRANCH  23  26
ATOM     26  C   UNL     1       2.107 -12.623   2.738  0.00  0.00    +0.000 C 
ATOM     27  H   UNL     1       1.944 -11.637   2.291  0.00  0.00    +0.000 HD
ATOM     28  H   UNL     1       1.600 -13.374   2.122  0.00  0.00    +0.000 HD
ATOM     29  H   UNL     1       1.622 -12.644   3.720  0.00  0.00    +0.000 HD
ENDBRANCH  23  26
ENDBRANCH  22  23
ENDBRANCH  21  22
ENDBRANCH  17  21
ENDBRANCH   1  17
TORSDOF 9
ENDMDL
MODEL 3
REMARK VINA RESULT:    -4.211      1.593      2.241
REMARK INTER + INTRA:          -6.371
REMARK INTER:                  -5.739
REMARK INTRA:                  -0.632
REMARK UNBOUND:                -0.191
REMARK  Name = 7797
REMARK  9 active torsions:
REMARK  status: ('A' for Active; 'I' for Inactive)
REMARK    1  A    between atoms: O_1  and  C_9
REMARK    2  A    between atoms: O_1  and  C_10
REMARK    3  A    between atoms: C_3  and  C_4
REMARK    4  A    between atoms: C_3  and  C_5
REMARK    5  A    between atoms: C_4  and  C_6
REMARK    6  A    between atoms: C_5  and  C_7
REMARK    7  A    between atoms: C_6  and  C_8
REMARK    8  A    between atoms: C_7  and  C_9
REMARK    9  A    between atoms: C_10  and  C_11
REMARK                            x       y       z     vdW  Elec       q    Type
REMARK                         _______ _______ _______ _____ _____    ______ ____
ROOT
ATOM      1  C   UNL     1       6.017  -3.098   0.967  0.00  0.00    +0.000 C 
ATOM      2  H   UNL     1       5.916  -2.009   1.073  0.00  0.00    +0.000 HD
ATOM      3  H   UNL     1       5.857  -3.524   1.965  0.00  0.00    +0.000 HD
ENDROOT
BRANCH   1   4
ATOM      4  C   UNL     1       4.941  -3.621   0.010  0.00  0.00    +0.000 C 
ATOM      5  H   UNL     1       5.277  -4.563  -0.441  0.00  0.00    +0.000 HD
ATOM      6  H   UNL     1       4.026  -3.840   0.573  0.00  0.00    +0.000 HD
BRANCH   4   7
ATOM      7  C   UNL     1       4.634  -2.602  -1.090  0.00  0.00    +0.000 C 
ATOM      8  H   UNL     1       3.605  -2.240  -0.980  0.00  0.00    +0.000 HD
ATOM      9  H   UNL     1       5.296  -1.734  -0.979  0.00  0.00    +0.000 HD
BRANCH   7  10
ATOM     10  C   UNL     1       4.815  -3.212  -2.479  0.00  0.00    +0.000 C 
ATOM     11  H   UNL     1       4.087  -2.779  -3.174  0.00  0.00    +0.000 HD
ATOM     12  H   UNL     1       4.624  -4.291  -2.440  0.00  0.00    +0.000 HD
BRANCH  10  13
ATOM     13  C   UNL     1       6.219  -2.975  -3.013  0.00  0.00    +0.000 C 
ATOM     14  H   UNL     1       6.965  -3.088  -2.219  0.00  0.00    +0.000 HD
ATOM     15  H   UNL     1       6.305  -1.963  -3.419  0.00  0.00    +0.000 HD
ATOM     16  H   UNL     1       6.460  -3.683  -3.812  0.00  0.00    +0.000 HD
ENDBRANCH  10  13
ENDBRANCH   7  10
ENDBRANCH   4   7
ENDBRANCH   1   4
BRANCH   1  17
ATOM     17  C   UNL     1       7.432  -3.432   0.494  0.00  0.00    +0.000 C 
ATOM     18  H   UNL     1       7.998  -3.877   1.321  0.00  0.00    +0.000 HD
ATOM     19  H   UNL     1       7.376  -4.157  -0.326  0.00  0.00    +0.000 HD
BRANCH  17  21
ATOM     20  O   UNL     1       7.738  -1.096  -0.108  0.00  0.00    +0.000 OA
ATOM     21  C   UNL     1       8.197  -2.225   0.003  0.00  0.00    +0.000 C 
BRANCH  21  22
ATOM     22  O   UNL     1       9.468  -2.607  -0.323  0.00  0.00    +0.000 OA
BRANCH  22  23
ATOM     23  C   UNL     1       9.570  -3.579  -1.368  0.00  0.00    +0.000 C 
ATOM     24  H   UNL     1      10.305  -4.340  -1.083  0.00  0.00    +0.000 HD
ATOM     25  H   UNL     1       8.596  -4.059  -1.511  0.00  0.00    +0.000 HD
BRANCH  23  26
ATOM     26  C   UNL     1       9.997  -2.910  -2.630  0.00  0.00    +0.000 C 
ATOM     27  H   UNL     1       9.728  -1.850  -2.627  0.00  0.00    +0.000 HD
ATOM     28  H   UNL     1      11.080  -2.995  -2.769  0.00  0.00    +0.000 HD
ATOM     29  H   UNL     1       9.531  -3.385  -3.500  0.00  0.00    +0.000 HD
ENDBRANCH  23  26
ENDBRANCH  22  23
ENDBRANCH  21  22
ENDBRANCH  17  21
ENDBRANCH   1  17
TORSDOF 9
ENDMDL
MODEL 4
REMARK VINA RESULT:    -4.090     20.473     22.190
REMARK INTER + INTRA:          -6.194
REMARK INTER:                  -6.025
REMARK INTRA:                  -0.169
REMARK UNBOUND:                -0.191
REMARK  Name = 7797
REMARK  9 active torsions:
REMARK  status: ('A' for Active; 'I' for Inactive)
REMARK    1  A    between atoms: O_1  and  C_9
REMARK    2  A    between atoms: O_1  and  C_10
REMARK    3  A    between atoms: C_3  and  C_4
REMARK    4  A    between atoms: C_3  and  C_5
REMARK    5  A    between atoms: C_4  and  C_6
REMARK    6  A    between atoms: C_5  and  C_7
REMARK    7  A    between atoms: C_6  and  C_8
REMARK    8  A    between atoms: C_7  and  C_9
REMARK    9  A    between atoms: C_10  and  C_11
REMARK                            x       y       z     vdW  Elec       q    Type
REMARK                         _______ _______ _______ _____ _____    ______ ____
ROOT
ATOM      1  C   UNL     1     -11.428 -14.887   7.443  0.00  0.00    +0.000 C 
ATOM      2  H   UNL     1     -11.939 -15.320   6.573  0.00  0.00    +0.000 HD
ATOM      3  H   UNL     1     -11.463 -13.798   7.315  0.00  0.00    +0.000 HD
ENDROOT
BRANCH   1   4
ATOM      4  C   UNL     1     -12.174 -15.276   8.723  0.00  0.00    +0.000 C 
ATOM      5  H   UNL     1     -12.178 -16.367   8.829  0.00  0.00    +0.000 HD
ATOM      6  H   UNL     1     -11.645 -14.867   9.592  0.00  0.00    +0.000 HD
BRANCH   4   7
ATOM      7  C   UNL     1     -13.612 -14.753   8.706  0.00  0.00    +0.000 C 
ATOM      8  H   UNL     1     -13.678 -13.873   8.053  0.00  0.00    +0.000 HD
ATOM      9  H   UNL     1     -14.275 -15.519   8.284  0.00  0.00    +0.000 HD
BRANCH   7  10
ATOM     10  C   UNL     1     -14.085 -14.382  10.111  0.00  0.00    +0.000 C 
ATOM     11  H   UNL     1     -13.253 -14.468  10.819  0.00  0.00    +0.000 HD
ATOM     12  H   UNL     1     -14.863 -15.081  10.438  0.00  0.00    +0.000 HD
BRANCH  10  13
ATOM     13  C   UNL     1     -14.638 -12.966  10.157  0.00  0.00    +0.000 C 
ATOM     14  H   UNL     1     -15.575 -12.892   9.595  0.00  0.00    +0.000 HD
ATOM     15  H   UNL     1     -13.922 -12.265   9.717  0.00  0.00    +0.000 HD
ATOM     16  H   UNL     1     -14.831 -12.653  11.187  0.00  0.00    +0.000 HD
ENDBRANCH  10  13
ENDBRANCH   7  10
ENDBRANCH   4   7
ENDBRANCH   1   4
BRANCH   1  17
ATOM     17  C   UNL     1      -9.970 -15.348   7.455  0.00  0.00    +0.000 C 
ATOM     18  H   UNL     1      -9.544 -15.191   8.453  0.00  0.00    +0.000 HD
ATOM     19  H   UNL     1      -9.927 -16.418   7.217  0.00  0.00    +0.000 HD
BRANCH  17  21
ATOM     20  O   UNL     1      -9.429 -14.330   5.314  0.00  0.00    +0.000 OA
ATOM     21  C   UNL     1      -9.104 -14.611   6.459  0.00  0.00    +0.000 C 
BRANCH  21  22
ATOM     22  O   UNL     1      -7.894 -14.341   7.036  0.00  0.00    +0.000 OA
BRANCH  22  23
ATOM     23  C   UNL     1      -7.167 -13.251   6.460  0.00  0.00    +0.000 C 
ATOM     24  H   UNL     1      -7.637 -12.963   5.513  0.00  0.00    +0.000 HD
ATOM     25  H   UNL     1      -7.192 -12.397   7.147  0.00  0.00    +0.000 HD
BRANCH  23  26
ATOM     26  C   UNL     1      -5.756 -13.667   6.220  0.00  0.00    +0.000 C 
ATOM     27  H   UNL     1      -5.663 -14.757   6.193  0.00  0.00    +0.000 HD
ATOM     28  H   UNL     1      -5.386 -13.262   5.271  0.00  0.00    +0.000 HD
ATOM     29  H   UNL     1      -5.096 -13.280   7.004  0.00  0.00    +0.000 HD
ENDBRANCH  23  26
ENDBRANCH  22  23
ENDBRANCH  21  22
ENDBRANCH  17  21
ENDBRANCH   1  17
TORSDOF 9
ENDMDL
MODEL 5
REMARK VINA RESULT:    -3.968     15.738     16.357
REMARK INTER + INTRA:          -6.015
REMARK INTER:                  -5.525
REMARK INTRA:                  -0.490
REMARK UNBOUND:                -0.191
REMARK  Name = 7797
REMARK  9 active torsions:
REMARK  status: ('A' for Active; 'I' for Inactive)
REMARK    1  A    between atoms: O_1  and  C_9
REMARK    2  A    between atoms: O_1  and  C_10
REMARK    3  A    between atoms: C_3  and  C_4
REMARK    4  A    between atoms: C_3  and  C_5
REMARK    5  A    between atoms: C_4  and  C_6
REMARK    6  A    between atoms: C_5  and  C_7
REMARK    7  A    between atoms: C_6  and  C_8
REMARK    8  A    between atoms: C_7  and  C_9
REMARK    9  A    between atoms: C_10  and  C_11
REMARK                            x       y       z     vdW  Elec       q    Type
REMARK                         _______ _______ _______ _____ _____    ______ ____
ROOT
ATOM      1  C   UNL     1       1.820  -6.328  15.573  0.00  0.00    +0.000 C 
ATOM      2  H   UNL     1       2.770  -5.800  15.418  0.00  0.00    +0.000 HD
ATOM      3  H   UNL     1       1.862  -6.754  16.583  0.00  0.00    +0.000 HD
ENDROOT
BRANCH   1   4
ATOM      4  C   UNL     1       0.659  -5.333  15.485  0.00  0.00    +0.000 C 
ATOM      5  H   UNL     1       0.057  -5.549  14.594  0.00  0.00    +0.000 HD
ATOM      6  H   UNL     1       0.006  -5.456  16.357  0.00  0.00    +0.000 HD
BRANCH   4   7
ATOM      7  C   UNL     1       1.169  -3.891  15.426  0.00  0.00    +0.000 C 
ATOM      8  H   UNL     1       0.362  -3.228  15.089  0.00  0.00    +0.000 HD
ATOM      9  H   UNL     1       1.456  -3.563  16.434  0.00  0.00    +0.000 HD
BRANCH   7  10
ATOM     10  C   UNL     1       2.365  -3.762  14.484  0.00  0.00    +0.000 C 
ATOM     11  H   UNL     1       2.028  -3.410  13.502  0.00  0.00    +0.000 HD
ATOM     12  H   UNL     1       2.829  -4.743  14.335  0.00  0.00    +0.000 HD
BRANCH  10  13
ATOM     13  C   UNL     1       3.405  -2.797  15.032  0.00  0.00    +0.000 C 
ATOM     14  H   UNL     1       4.367  -3.298  15.175  0.00  0.00    +0.000 HD
ATOM     15  H   UNL     1       3.081  -2.401  16.000  0.00  0.00    +0.000 HD
ATOM     16  H   UNL     1       3.554  -1.953  14.352  0.00  0.00    +0.000 HD
ENDBRANCH  10  13
ENDBRANCH   7  10
ENDBRANCH   4   7
ENDBRANCH   1   4
BRANCH   1  17
ATOM     17  C   UNL     1       1.698  -7.460  14.552  0.00  0.00    +0.000 C 
ATOM     18  H   UNL     1       1.481  -8.401  15.072  0.00  0.00    +0.000 HD
ATOM     19  H   UNL     1       0.873  -7.238  13.864  0.00  0.00    +0.000 HD
BRANCH  17  21
ATOM     20  O   UNL     1       3.116  -8.544  12.901  0.00  0.00    +0.000 OA
ATOM     21  C   UNL     1       2.951  -7.661  13.732  0.00  0.00    +0.000 C 
BRANCH  21  22
ATOM     22  O   UNL     1       3.874  -6.719  14.092  0.00  0.00    +0.000 OA
BRANCH  22  23
ATOM     23  C   UNL     1       5.154  -7.227  14.479  0.00  0.00    +0.000 C 
ATOM     24  H   UNL     1       5.036  -8.244  14.871  0.00  0.00    +0.000 HD
ATOM     25  H   UNL     1       5.812  -7.256  13.603  0.00  0.00    +0.000 HD
BRANCH  23  26
ATOM     26  C   UNL     1       5.743  -6.345  15.527  0.00  0.00    +0.000 C 
ATOM     27  H   UNL     1       5.334  -6.576  16.515  0.00  0.00    +0.000 HD
ATOM     28  H   UNL     1       6.832  -6.459  15.565  0.00  0.00    +0.000 HD
ATOM     29  H   UNL     1       5.546  -5.291  15.305  0.00  0.00    +0.000 HD
ENDBRANCH  23  26
ENDBRANCH  22  23
ENDBRANCH  21  22
ENDBRANCH  17  21
ENDBRANCH   1  17
TORSDOF 9
ENDMDL
MODEL 6
REMARK VINA RESULT:    -3.963     13.978     15.060
REMARK INTER + INTRA:          -6.007
REMARK INTER:                  -5.462
REMARK INTRA:                  -0.546
REMARK UNBOUND:                -0.191
REMARK  Name = 7797
REMARK  9 active torsions:
REMARK  status: ('A' for Active; 'I' for Inactive)
REMARK    1  A    between atoms: O_1  and  C_9
REMARK    2  A    between atoms: O_1  and  C_10
REMARK    3  A    between atoms: C_3  and  C_4
REMARK    4  A    between atoms: C_3  and  C_5
REMARK    5  A    between atoms: C_4  and  C_6
REMARK    6  A    between atoms: C_5  and  C_7
REMARK    7  A    between atoms: C_6  and  C_8
REMARK    8  A    between atoms: C_7  and  C_9
REMARK    9  A    between atoms: C_10  and  C_11
REMARK                            x       y       z     vdW  Elec       q    Type
REMARK                         _______ _______ _______ _____ _____    ______ ____
ROOT
ATOM      1  C   UNL     1      -3.951  -9.493  -8.848  0.00  0.00    +0.000 C 
ATOM      2  H   UNL     1      -4.834  -9.026  -9.305  0.00  0.00    +0.000 HD
ATOM      3  H   UNL     1      -3.709 -10.369  -9.462  0.00  0.00    +0.000 HD
ENDROOT
BRANCH   1   4
ATOM      4  C   UNL     1      -2.778  -8.508  -8.876  0.00  0.00    +0.000 C 
ATOM      5  H   UNL     1      -2.477  -8.265  -7.850  0.00  0.00    +0.000 HD
ATOM      6  H   UNL     1      -1.917  -8.980  -9.364  0.00  0.00    +0.000 HD
BRANCH   4   7
ATOM      7  C   UNL     1      -3.150  -7.224  -9.622  0.00  0.00    +0.000 C 
ATOM      8  H   UNL     1      -3.981  -6.725  -9.107  0.00  0.00    +0.000 HD
ATOM      9  H   UNL     1      -2.298  -6.532  -9.607  0.00  0.00    +0.000 HD
BRANCH   7  10
ATOM     10  C   UNL     1      -3.548  -7.517 -11.068  0.00  0.00    +0.000 C 
ATOM     11  H   UNL     1      -4.627  -7.696 -11.128  0.00  0.00    +0.000 HD
ATOM     12  H   UNL     1      -3.048  -8.429 -11.415  0.00  0.00    +0.000 HD
BRANCH  10  13
ATOM     13  C   UNL     1      -3.179  -6.366 -11.991  0.00  0.00    +0.000 C 
ATOM     14  H   UNL     1      -3.424  -5.403 -11.534  0.00  0.00    +0.000 HD
ATOM     15  H   UNL     1      -3.729  -6.446 -12.934  0.00  0.00    +0.000 HD
ATOM     16  H   UNL     1      -2.109  -6.375 -12.221  0.00  0.00    +0.000 HD
ENDBRANCH  10  13
ENDBRANCH   7  10
ENDBRANCH   4   7
ENDBRANCH   1   4
BRANCH   1  17
ATOM     17  C   UNL     1      -4.297  -9.949  -7.430  0.00  0.00    +0.000 C 
ATOM     18  H   UNL     1      -4.679 -10.976  -7.459  0.00  0.00    +0.000 HD
ATOM     19  H   UNL     1      -3.391  -9.926  -6.813  0.00  0.00    +0.000 HD
BRANCH  17  21
ATOM     20  O   UNL     1      -5.522  -9.000  -5.556  0.00  0.00    +0.000 OA
ATOM     21  C   UNL     1      -5.341  -9.082  -6.763  0.00  0.00    +0.000 C 
BRANCH  21  22
ATOM     22  O   UNL     1      -6.062  -8.434  -7.727  0.00  0.00    +0.000 OA
BRANCH  22  23
ATOM     23  C   UNL     1      -6.730  -7.243  -7.299  0.00  0.00    +0.000 C 
ATOM     24  H   UNL     1      -7.811  -7.370  -7.425  0.00  0.00    +0.000 HD
ATOM     25  H   UNL     1      -6.511  -7.066  -6.240  0.00  0.00    +0.000 HD
BRANCH  23  26
ATOM     26  C   UNL     1      -6.257  -6.088  -8.115  0.00  0.00    +0.000 C 
ATOM     27  H   UNL     1      -6.309  -5.154  -7.547  0.00  0.00    +0.000 HD
ATOM     28  H   UNL     1      -5.223  -6.240  -8.443  0.00  0.00    +0.000 HD
ATOM     29  H   UNL     1      -6.861  -5.978  -9.022  0.00  0.00    +0.000 HD
ENDBRANCH  23  26
ENDBRANCH  22  23
ENDBRANCH  21  22
ENDBRANCH  17  21
ENDBRANCH   1  17
TORSDOF 9
ENDMDL
MODEL 7
REMARK VINA RESULT:    -3.923     15.201     16.049
REMARK INTER + INTRA:          -5.949
REMARK INTER:                  -5.697
REMARK INTRA:                  -0.252
REMARK UNBOUND:                -0.191
REMARK  Name = 7797
REMARK  9 active torsions:
REMARK  status: ('A' for Active; 'I' for Inactive)
REMARK    1  A    between atoms: O_1  and  C_9
REMARK    2  A    between atoms: O_1  and  C_10
REMARK    3  A    between atoms: C_3  and  C_4
REMARK    4  A    between atoms: C_3  and  C_5
REMARK    5  A    between atoms: C_4  and  C_6
REMARK    6  A    between atoms: C_5  and  C_7
REMARK    7  A    between atoms: C_6  and  C_8
REMARK    8  A    between atoms: C_7  and  C_9
REMARK    9  A    between atoms: C_10  and  C_11
REMARK                            x       y       z     vdW  Elec       q    Type
REMARK                         _______ _______ _______ _____ _____    ______ ____
ROOT
ATOM      1  C   UNL     1       7.722  12.331  -1.410  0.00  0.00    +0.000 C 
ATOM      2  H   UNL     1       7.901  11.404  -0.850  0.00  0.00    +0.000 HD
ATOM      3  H   UNL     1       6.699  12.266  -1.801  0.00  0.00    +0.000 HD
ENDROOT
BRANCH   1   4
ATOM      4  C   UNL     1       7.833  13.531  -0.464  0.00  0.00    +0.000 C 
ATOM      5  H   UNL     1       8.869  13.634  -0.121  0.00  0.00    +0.000 HD
ATOM      6  H   UNL     1       7.580  14.449  -1.009  0.00  0.00    +0.000 HD
BRANCH   4   7
ATOM      7  C   UNL     1       6.902  13.376   0.740  0.00  0.00    +0.000 C 
ATOM      8  H   UNL     1       7.494  13.362   1.664  0.00  0.00    +0.000 HD
ATOM      9  H   UNL     1       6.232  14.243   0.799  0.00  0.00    +0.000 HD
BRANCH   7  10
ATOM     10  C   UNL     1       6.076  12.095   0.643  0.00  0.00    +0.000 C 
ATOM     11  H   UNL     1       6.705  11.274   0.278  0.00  0.00    +0.000 HD
ATOM     12  H   UNL     1       5.265  12.229  -0.081  0.00  0.00    +0.000 HD
BRANCH  10  13
ATOM     13  C   UNL     1       5.483  11.711   1.989  0.00  0.00    +0.000 C 
ATOM     14  H   UNL     1       4.394  11.822   1.984  0.00  0.00    +0.000 HD
ATOM     15  H   UNL     1       5.886  12.354   2.778  0.00  0.00    +0.000 HD
ATOM     16  H   UNL     1       5.721  10.673   2.242  0.00  0.00    +0.000 HD
ENDBRANCH  10  13
ENDBRANCH   7  10
ENDBRANCH   4   7
ENDBRANCH   1   4
BRANCH   1  17
ATOM     17  C   UNL     1       8.705  12.415  -2.578  0.00  0.00    +0.000 C 
ATOM     18  H   UNL     1       9.479  13.158  -2.352  0.00  0.00    +0.000 HD
ATOM     19  H   UNL     1       9.183  11.438  -2.718  0.00  0.00    +0.000 HD
BRANCH  17  21
ATOM     20  O   UNL     1       6.940  13.312  -3.989  0.00  0.00    +0.000 OA
ATOM     21  C   UNL     1       8.049  12.809  -3.882  0.00  0.00    +0.000 C 
BRANCH  21  22
ATOM     22  O   UNL     1       8.883  12.483  -4.915  0.00  0.00    +0.000 OA
BRANCH  22  23
ATOM     23  C   UNL     1       8.409  12.826  -6.221  0.00  0.00    +0.000 C 
ATOM     24  H   UNL     1       7.524  12.224  -6.454  0.00  0.00    +0.000 HD
ATOM     25  H   UNL     1       8.135  13.887  -6.238  0.00  0.00    +0.000 HD
BRANCH  23  26
ATOM     26  C   UNL     1       9.480  12.562  -7.224  0.00  0.00    +0.000 C 
ATOM     27  H   UNL     1      10.254  13.333  -7.189  0.00  0.00    +0.000 HD
ATOM     28  H   UNL     1       9.949  11.588  -7.045  0.00  0.00    +0.000 HD
ATOM     29  H   UNL     1       9.065  12.529  -8.237  0.00  0.00    +0.000 HD
ENDBRANCH  23  26
ENDBRANCH  22  23
ENDBRANCH  21  22
ENDBRANCH  17  21
ENDBRANCH   1  17
TORSDOF 9
ENDMDL
MODEL 8
REMARK VINA RESULT:    -3.914     15.159     15.854
REMARK INTER + INTRA:          -5.935
REMARK INTER:                  -5.744
REMARK INTRA:                  -0.191
REMARK UNBOUND:                -0.191
REMARK  Name = 7797
REMARK  9 active torsions:
REMARK  status: ('A' for Active; 'I' for Inactive)
REMARK    1  A    between atoms: O_1  and  C_9
REMARK    2  A    between atoms: O_1  and  C_10
REMARK    3  A    between atoms: C_3  and  C_4
REMARK    4  A    between atoms: C_3  and  C_5
REMARK    5  A    between atoms: C_4  and  C_6
REMARK    6  A    between atoms: C_5  and  C_7
REMARK    7  A    between atoms: C_6  and  C_8
REMARK    8  A    between atoms: C_7  and  C_9
REMARK    9  A    between atoms: C_10  and  C_11
REMARK                            x       y       z     vdW  Elec       q    Type
REMARK                         _______ _______ _______ _____ _____    ______ ____
ROOT
ATOM      1  C   UNL     1       5.592  12.296   0.176  0.00  0.00    +0.000 C 
ATOM      2  H   UNL     1       4.834  11.765  -0.414  0.00  0.00    +0.000 HD
ATOM      3  H   UNL     1       5.199  13.305   0.352  0.00  0.00    +0.000 HD
ENDROOT
BRANCH   1   4
ATOM      4  C   UNL     1       5.791  11.583   1.518  0.00  0.00    +0.000 C 
ATOM      5  H   UNL     1       5.646  10.504   1.385  0.00  0.00    +0.000 HD
ATOM      6  H   UNL     1       6.821  11.733   1.861  0.00  0.00    +0.000 HD
BRANCH   4   7
ATOM      7  C   UNL     1       4.816  12.109   2.574  0.00  0.00    +0.000 C 
ATOM      8  H   UNL     1       4.301  12.999   2.191  0.00  0.00    +0.000 HD
ATOM      9  H   UNL     1       4.048  11.351   2.772  0.00  0.00    +0.000 HD
BRANCH   7  10
ATOM     10  C   UNL     1       5.541  12.458   3.873  0.00  0.00    +0.000 C 
ATOM     11  H   UNL     1       6.033  13.432   3.774  0.00  0.00    +0.000 HD
ATOM     12  H   UNL     1       6.323  11.718   4.074  0.00  0.00    +0.000 HD
BRANCH  10  13
ATOM     13  C   UNL     1       4.581  12.499   5.052  0.00  0.00    +0.000 C 
ATOM     14  H   UNL     1       4.415  13.528   5.387  0.00  0.00    +0.000 HD
ATOM     15  H   UNL     1       4.989  11.930   5.893  0.00  0.00    +0.000 HD
ATOM     16  H   UNL     1       3.613  12.064   4.786  0.00  0.00    +0.000 HD
ENDBRANCH  10  13
ENDBRANCH   7  10
ENDBRANCH   4   7
ENDBRANCH   1   4
BRANCH   1  17
ATOM     17  C   UNL     1       6.888  12.392  -0.631  0.00  0.00    +0.000 C 
ATOM     18  H   UNL     1       7.713  12.675   0.033  0.00  0.00    +0.000 HD
ATOM     19  H   UNL     1       7.110  11.414  -1.074  0.00  0.00    +0.000 HD
BRANCH  17  21
ATOM     20  O   UNL     1       5.836  14.075  -2.036  0.00  0.00    +0.000 OA
ATOM     21  C   UNL     1       6.820  13.409  -1.747  0.00  0.00    +0.000 C 
BRANCH  21  22
ATOM     22  O   UNL     1       8.024  13.439  -2.395  0.00  0.00    +0.000 OA
BRANCH  22  23
ATOM     23  C   UNL     1       8.588  12.160  -2.704  0.00  0.00    +0.000 C 
ATOM     24  H   UNL     1       9.153  11.795  -1.839  0.00  0.00    +0.000 HD
ATOM     25  H   UNL     1       7.780  11.454  -2.928  0.00  0.00    +0.000 HD
BRANCH  23  26
ATOM     26  C   UNL     1       9.491  12.288  -3.883  0.00  0.00    +0.000 C 
ATOM     27  H   UNL     1      10.432  11.753  -3.721  0.00  0.00    +0.000 HD
ATOM     28  H   UNL     1       9.014  11.890  -4.785  0.00  0.00    +0.000 HD
ATOM     29  H   UNL     1       9.720  13.340  -4.087  0.00  0.00    +0.000 HD
ENDBRANCH  23  26
ENDBRANCH  22  23
ENDBRANCH  21  22
ENDBRANCH  17  21
ENDBRANCH   1  17
TORSDOF 9
ENDMDL
MODEL 9
REMARK VINA RESULT:    -3.911     14.466     15.303
REMARK INTER + INTRA:          -5.930
REMARK INTER:                  -5.185
REMARK INTRA:                  -0.746
REMARK UNBOUND:                -0.191
REMARK  Name = 7797
REMARK  9 active torsions:
REMARK  status: ('A' for Active; 'I' for Inactive)
REMARK    1  A    between atoms: O_1  and  C_9
REMARK    2  A    between atoms: O_1  and  C_10
REMARK    3  A    between atoms: C_3  and  C_4
REMARK    4  A    between atoms: C_3  and  C_5
REMARK    5  A    between atoms: C_4  and  C_6
REMARK    6  A    between atoms: C_5  and  C_7
REMARK    7  A    between atoms: C_6  and  C_8
REMARK    8  A    between atoms: C_7  and  C_9
REMARK    9  A    between atoms: C_10  and  C_11
REMARK                            x       y       z     vdW  Elec       q    Type
REMARK                         _______ _______ _______ _____ _____    ______ ____
ROOT
ATOM      1  C   UNL     1      -6.931  -6.850  -7.041  0.00  0.00    +0.000 C 
ATOM      2  H   UNL     1      -6.599  -6.575  -6.032  0.00  0.00    +0.000 HD
ATOM      3  H   UNL     1      -7.996  -6.594  -7.099  0.00  0.00    +0.000 HD
ENDROOT
BRANCH   1   4
ATOM      4  C   UNL     1      -6.152  -6.034  -8.078  0.00  0.00    +0.000 C 
ATOM      5  H   UNL     1      -6.335  -4.965  -7.917  0.00  0.00    +0.000 HD
ATOM      6  H   UNL     1      -5.077  -6.203  -7.942  0.00  0.00    +0.000 HD
BRANCH   4   7
ATOM      7  C   UNL     1      -6.555  -6.419  -9.503  0.00  0.00    +0.000 C 
ATOM      8  H   UNL     1      -7.240  -7.275  -9.474  0.00  0.00    +0.000 HD
ATOM      9  H   UNL     1      -7.098  -5.586  -9.967  0.00  0.00    +0.000 HD
BRANCH   7  10
ATOM     10  C   UNL     1      -5.333  -6.770 -10.350  0.00  0.00    +0.000 C 
ATOM     11  H   UNL     1      -5.307  -6.139 -11.246  0.00  0.00    +0.000 HD
ATOM     12  H   UNL     1      -5.401  -7.811 -10.688  0.00  0.00    +0.000 HD
BRANCH  10  13
ATOM     13  C   UNL     1      -4.042  -6.585  -9.569  0.00  0.00    +0.000 C 
ATOM     14  H   UNL     1      -3.574  -5.624  -9.807  0.00  0.00    +0.000 HD
ATOM     15  H   UNL     1      -3.331  -7.379  -9.818  0.00  0.00    +0.000 HD
ATOM     16  H   UNL     1      -4.227  -6.620  -8.491  0.00  0.00    +0.000 HD
ENDBRANCH  10  13
ENDBRANCH   7  10
ENDBRANCH   4   7
ENDBRANCH   1   4
BRANCH   1  17
ATOM     17  C   UNL     1      -6.763  -8.357  -7.238  0.00  0.00    +0.000 C 
ATOM     18  H   UNL     1      -7.717  -8.860  -7.044  0.00  0.00    +0.000 HD
ATOM     19  H   UNL     1      -6.462  -8.554  -8.274  0.00  0.00    +0.000 HD
BRANCH  17  21
ATOM     20  O   UNL     1      -5.726  -8.887  -5.103  0.00  0.00    +0.000 OA
ATOM     21  C   UNL     1      -5.723  -8.964  -6.324  0.00  0.00    +0.000 C 
BRANCH  21  22
ATOM     22  O   UNL     1      -4.770  -9.582  -7.084  0.00  0.00    +0.000 OA
BRANCH  22  23
ATOM     23  C   UNL     1      -5.206 -10.036  -8.369  0.00  0.00    +0.000 C 
ATOM     24  H   UNL     1      -5.765 -10.972  -8.252  0.00  0.00    +0.000 HD
ATOM     25  H   UNL     1      -5.863  -9.281  -8.816  0.00  0.00    +0.000 HD
BRANCH  23  26
ATOM     26  C   UNL     1      -4.022 -10.261  -9.246  0.00  0.00    +0.000 C 
ATOM     27  H   UNL     1      -3.129 -10.490  -8.656  0.00  0.00    +0.000 HD
ATOM     28  H   UNL     1      -4.202 -11.089  -9.941  0.00  0.00    +0.000 HD
ATOM     29  H   UNL     1      -3.817  -9.376  -9.859  0.00  0.00    +0.000 HD
ENDBRANCH  23  26
ENDBRANCH  22  23
ENDBRANCH  21  22
ENDBRANCH  17  21
ENDBRANCH   1  17
TORSDOF 9
ENDMDL
MODEL 10
REMARK VINA RESULT:    -3.850     15.803     16.547
REMARK INTER + INTRA:          -5.842
REMARK INTER:                  -5.397
REMARK INTRA:                  -0.444
REMARK UNBOUND:                -0.191
REMARK  Name = 7797
REMARK  9 active torsions:
REMARK  status: ('A' for Active; 'I' for Inactive)
REMARK    1  A    between atoms: O_1  and  C_9
REMARK    2  A    between atoms: O_1  and  C_10
REMARK    3  A    between atoms: C_3  and  C_4
REMARK    4  A    between atoms: C_3  and  C_5
REMARK    5  A    between atoms: C_4  and  C_6
REMARK    6  A    between atoms: C_5  and  C_7
REMARK    7  A    between atoms: C_6  and  C_8
REMARK    8  A    between atoms: C_7  and  C_9
REMARK    9  A    between atoms: C_10  and  C_11
REMARK                            x       y       z     vdW  Elec       q    Type
REMARK                         _______ _______ _______ _____ _____    ______ ____
ROOT
ATOM      1  C   UNL     1      16.885   9.008   3.810  0.00  0.00    +0.000 C 
ATOM      2  H   UNL     1      17.663   9.769   3.662  0.00  0.00    +0.000 HD
ATOM      3  H   UNL     1      17.266   8.317   4.572  0.00  0.00    +0.000 HD
ENDROOT
BRANCH   1   4
ATOM      4  C   UNL     1      15.604   9.677   4.320  0.00  0.00    +0.000 C 
ATOM      5  H   UNL     1      14.730   9.151   3.918  0.00  0.00    +0.000 HD
ATOM      6  H   UNL     1      15.559   9.594   5.412  0.00  0.00    +0.000 HD
BRANCH   4   7
ATOM      7  C   UNL     1      15.550  11.152   3.914  0.00  0.00    +0.000 C 
ATOM      8  H   UNL     1      15.839  11.780   4.767  0.00  0.00    +0.000 HD
ATOM      9  H   UNL     1      16.278  11.339   3.115  0.00  0.00    +0.000 HD
BRANCH   7  10
ATOM     10  C   UNL     1      14.153  11.547   3.440  0.00  0.00    +0.000 C 
ATOM     11  H   UNL     1      14.059  12.639   3.428  0.00  0.00    +0.000 HD
ATOM     12  H   UNL     1      13.400  11.164   4.138  0.00  0.00    +0.000 HD
BRANCH  10  13
ATOM     13  C   UNL     1      13.862  11.004   2.050  0.00  0.00    +0.000 C 
ATOM     14  H   UNL     1      13.033  10.290   2.073  0.00  0.00    +0.000 HD
ATOM     15  H   UNL     1      14.743  10.489   1.652  0.00  0.00    +0.000 HD
ATOM     16  H   UNL     1      13.601  11.811   1.359  0.00  0.00    +0.000 HD
ENDBRANCH  10  13
ENDBRANCH   7  10
ENDBRANCH   4   7
ENDBRANCH   1   4
BRANCH   1  17
ATOM     17  C   UNL     1      16.666   8.248   2.502  0.00  0.00    +0.000 C 
ATOM     18  H   UNL     1      17.071   7.233   2.596  0.00  0.00    +0.000 HD
ATOM     19  H   UNL     1      15.590   8.181   2.299  0.00  0.00    +0.000 HD
BRANCH  17  21
ATOM     20  O   UNL     1      16.759   9.598   0.482  0.00  0.00    +0.000 OA
ATOM     21  C   UNL     1      17.329   8.904   1.313  0.00  0.00    +0.000 C 
BRANCH  21  22
ATOM     22  O   UNL     1      18.655   8.571   1.303  0.00  0.00    +0.000 OA
BRANCH  22  23
ATOM     23  C   UNL     1      19.393   9.017   0.161  0.00  0.00    +0.000 C 
ATOM     24  H   UNL     1      18.698   9.421  -0.583  0.00  0.00    +0.000 HD
ATOM     25  H   UNL     1      20.089   9.807   0.467  0.00  0.00    +0.000 HD
BRANCH  23  26
ATOM     26  C   UNL     1      20.150   7.872  -0.420  0.00  0.00    +0.000 C 
ATOM     27  H   UNL     1      20.819   7.423   0.319  0.00  0.00    +0.000 HD
ATOM     28  H   UNL     1      19.465   7.098  -0.786  0.00  0.00    +0.000 HD
ATOM     29  H   UNL     1      20.746   8.195  -1.280  0.00  0.00    +0.000 HD
ENDBRANCH  23  26
ENDBRANCH  22  23
ENDBRANCH  21  22
ENDBRANCH  17  21
ENDBRANCH   1  17
TORSDOF 9
ENDMDL
