MODEL 1
REMARK VINA RESULT:    -5.111      0.000      0.000
REMARK INTER + INTRA:          -6.775
REMARK INTER:                  -6.373
REMARK INTRA:                  -0.401
REMARK UNBOUND:                -0.468
REMARK  Name = 6877
REMARK  5 active torsions:
REMARK  status: ('A' for Active; 'I' for Inactive)
REMARK    1  A    between atoms: O_1  and  C_8
REMARK    2  A    between atoms: O_1  and  C_10
REMARK    3  A    between atoms: N_3  and  C_5
REMARK    4  A    between atoms: C_4  and  C_8
REMARK    5  A    between atoms: C_10  and  C_12
REMARK                            x       y       z     vdW  Elec       q    Type
REMARK                         _______ _______ _______ _____ _____    ______ ____
ROOT
ATOM      1  C   UNL     1       4.655 -12.371   0.714  0.00  0.00    +0.000 A 
ATOM      2  C   UNL     1       4.675 -13.039   1.938  0.00  0.00    +0.000 A 
ATOM      3  C   UNL     1       3.635 -11.463   0.432  0.00  0.00    +0.000 A 
ATOM      4  C   UNL     1       3.675 -12.798   2.880  0.00  0.00    +0.000 A 
ATOM      5  C   UNL     1       2.635 -11.223   1.374  0.00  0.00    +0.000 A 
ATOM      6  C   UNL     1       2.655 -11.890   2.598  0.00  0.00    +0.000 A 
ATOM      7  H   UNL     1       3.597 -10.915  -0.507  0.00  0.00    +0.000 HD
ATOM      8  H   UNL     1       3.679 -13.311   3.838  0.00  0.00    +0.000 HD
ATOM      9  H   UNL     1       1.843 -10.513   1.155  0.00  0.00    +0.000 HD
ATOM     10  H   UNL     1       1.877 -11.702   3.332  0.00  0.00    +0.000 HD
ENDROOT
BRANCH   2  11
ATOM     11  N   UNL     1       5.700 -13.964   2.244  0.00  0.00    +0.000 N 
ATOM     12  H   UNL     1       6.593 -13.649   2.596  0.00  0.00    +0.000 HD
ATOM     13  H   UNL     1       5.543 -14.952   2.096  0.00  0.00    +0.000 HD
ENDBRANCH   2  11
BRANCH   1  15
ATOM     14  O   UNL     1       5.941 -13.704  -0.788  0.00  0.00    +0.000 OA
ATOM     15  C   UNL     1       5.685 -12.601  -0.292  0.00  0.00    +0.000 C 
BRANCH  15  16
ATOM     16  O   UNL     1       6.333 -11.442  -0.618  0.00  0.00    +0.000 OA
BRANCH  16  17
ATOM     17  C   UNL     1       7.763 -11.460  -0.540  0.00  0.00    +0.000 C 
ATOM     18  H   UNL     1       8.070 -11.985   0.370  0.00  0.00    +0.000 HD
ATOM     19  H   UNL     1       8.168 -11.979  -1.415  0.00  0.00    +0.000 HD
BRANCH  17  20
ATOM     20  C   UNL     1       8.271 -10.034  -0.507  0.00  0.00    +0.000 C 
ATOM     21  H   UNL     1       8.065  -9.568   0.460  0.00  0.00    +0.000 HD
ATOM     22  H   UNL     1       9.351 -10.006  -0.690  0.00  0.00    +0.000 HD
ATOM     23  H   UNL     1       7.800  -9.438  -1.295  0.00  0.00    +0.000 HD
ENDBRANCH  17  20
ENDBRANCH  16  17
ENDBRANCH  15  16
ENDBRANCH   1  15
TORSDOF 5
ENDMDL
MODEL 2
REMARK VINA RESULT:    -5.106      1.455      2.013
REMARK INTER + INTRA:          -6.768
REMARK INTER:                  -6.376
REMARK INTRA:                  -0.391
REMARK UNBOUND:                -0.468
REMARK  Name = 6877
REMARK  5 active torsions:
REMARK  status: ('A' for Active; 'I' for Inactive)
REMARK    1  A    between atoms: O_1  and  C_8
REMARK    2  A    between atoms: O_1  and  C_10
REMARK    3  A    between atoms: N_3  and  C_5
REMARK    4  A    between atoms: C_4  and  C_8
REMARK    5  A    between atoms: C_10  and  C_12
REMARK                            x       y       z     vdW  Elec       q    Type
REMARK                         _______ _______ _______ _____ _____    ______ ____
ROOT
ATOM      1  C   UNL     1       4.783 -12.503   0.811  0.00  0.00    +0.000 A 
ATOM      2  C   UNL     1       3.820 -11.577   0.408  0.00  0.00    +0.000 A 
ATOM      3  C   UNL     1       4.680 -13.118   2.058  0.00  0.00    +0.000 A 
ATOM      4  C   UNL     1       2.755 -11.267   1.253  0.00  0.00    +0.000 A 
ATOM      5  C   UNL     1       3.615 -12.806   2.904  0.00  0.00    +0.000 A 
ATOM      6  C   UNL     1       2.652 -11.881   2.502  0.00  0.00    +0.000 A 
ATOM      7  H   UNL     1       5.405 -13.854   2.398  0.00  0.00    +0.000 HD
ATOM      8  H   UNL     1       1.998 -10.548   0.952  0.00  0.00    +0.000 HD
ATOM      9  H   UNL     1       3.534 -13.288   3.874  0.00  0.00    +0.000 HD
ATOM     10  H   UNL     1       1.823 -11.640   3.159  0.00  0.00    +0.000 HD
ENDROOT
BRANCH   2  11
ATOM     11  N   UNL     1       3.905 -10.943  -0.852  0.00  0.00    +0.000 N 
ATOM     12  H   UNL     1       3.399 -10.089  -1.038  0.00  0.00    +0.000 HD
ATOM     13  H   UNL     1       4.469 -11.357  -1.583  0.00  0.00    +0.000 HD
ENDBRANCH   2  11
BRANCH   1  15
ATOM     14  O   UNL     1       6.225 -14.005  -0.351  0.00  0.00    +0.000 OA
ATOM     15  C   UNL     1       5.908 -12.849  -0.049  0.00  0.00    +0.000 C 
BRANCH  15  16
ATOM     16  O   UNL     1       6.569 -11.733  -0.481  0.00  0.00    +0.000 OA
BRANCH  16  17
ATOM     17  C   UNL     1       7.866 -11.497   0.077  0.00  0.00    +0.000 C 
ATOM     18  H   UNL     1       7.833 -10.599   0.704  0.00  0.00    +0.000 HD
ATOM     19  H   UNL     1       8.162 -12.357   0.687  0.00  0.00    +0.000 HD
BRANCH  17  20
ATOM     20  C   UNL     1       8.858 -11.300  -1.050  0.00  0.00    +0.000 C 
ATOM     21  H   UNL     1       8.571 -11.883  -1.930  0.00  0.00    +0.000 HD
ATOM     22  H   UNL     1       8.918 -10.244  -1.330  0.00  0.00    +0.000 HD
ATOM     23  H   UNL     1       9.862 -11.604  -0.737  0.00  0.00    +0.000 HD
ENDBRANCH  17  20
ENDBRANCH  16  17
ENDBRANCH  15  16
ENDBRANCH   1  15
TORSDOF 5
ENDMDL
MODEL 3
REMARK VINA RESULT:    -4.806     24.373     25.183
REMARK INTER + INTRA:          -6.398
REMARK INTER:                  -5.973
REMARK INTRA:                  -0.425
REMARK UNBOUND:                -0.468
REMARK  Name = 6877
REMARK  5 active torsions:
REMARK  status: ('A' for Active; 'I' for Inactive)
REMARK    1  A    between atoms: O_1  and  C_8
REMARK    2  A    between atoms: O_1  and  C_10
REMARK    3  A    between atoms: N_3  and  C_5
REMARK    4  A    between atoms: C_4  and  C_8
REMARK    5  A    between atoms: C_10  and  C_12
REMARK                            x       y       z     vdW  Elec       q    Type
REMARK                         _______ _______ _______ _____ _____    ______ ____
ROOT
ATOM      1  C   UNL     1       6.633  12.868   0.226  0.00  0.00    +0.000 A 
ATOM      2  C   UNL     1       7.016  13.757   1.230  0.00  0.00    +0.000 A 
ATOM      3  C   UNL     1       5.876  11.741   0.545  0.00  0.00    +0.000 A 
ATOM      4  C   UNL     1       6.641  13.521   2.552  0.00  0.00    +0.000 A 
ATOM      5  C   UNL     1       5.501  11.504   1.867  0.00  0.00    +0.000 A 
ATOM      6  C   UNL     1       5.883  12.393   2.871  0.00  0.00    +0.000 A 
ATOM      7  H   UNL     1       5.549  11.035  -0.215  0.00  0.00    +0.000 HD
ATOM      8  H   UNL     1       6.932  14.206   3.344  0.00  0.00    +0.000 HD
ATOM      9  H   UNL     1       4.908  10.628   2.114  0.00  0.00    +0.000 HD
ATOM     10  H   UNL     1       5.591  12.209   3.900  0.00  0.00    +0.000 HD
ENDROOT
BRANCH   2  11
ATOM     11  N   UNL     1       7.784  14.905   0.928  0.00  0.00    +0.000 N 
ATOM     12  H   UNL     1       7.689  15.373   0.038  0.00  0.00    +0.000 HD
ATOM     13  H   UNL     1       8.447  15.256   1.607  0.00  0.00    +0.000 HD
ENDBRANCH   2  11
BRANCH   1  15
ATOM     14  O   UNL     1       6.224  13.439  -2.053  0.00  0.00    +0.000 OA
ATOM     15  C   UNL     1       7.010  13.087  -1.165  0.00  0.00    +0.000 C 
BRANCH  15  16
ATOM     16  O   UNL     1       8.342  12.855  -1.365  0.00  0.00    +0.000 OA
BRANCH  16  17
ATOM     17  C   UNL     1       8.686  11.689  -2.122  0.00  0.00    +0.000 C 
ATOM     18  H   UNL     1       9.473  11.136  -1.598  0.00  0.00    +0.000 HD
ATOM     19  H   UNL     1       7.802  11.052  -2.231  0.00  0.00    +0.000 HD
BRANCH  17  20
ATOM     20  C   UNL     1       9.181  12.117  -3.487  0.00  0.00    +0.000 C 
ATOM     21  H   UNL     1      10.073  12.744  -3.401  0.00  0.00    +0.000 HD
ATOM     22  H   UNL     1       9.422  11.243  -4.101  0.00  0.00    +0.000 HD
ATOM     23  H   UNL     1       8.406  12.677  -4.021  0.00  0.00    +0.000 HD
ENDBRANCH  17  20
ENDBRANCH  16  17
ENDBRANCH  15  16
ENDBRANCH   1  15
TORSDOF 5
ENDMDL
MODEL 4
REMARK VINA RESULT:    -4.805      2.219      2.779
REMARK INTER + INTRA:          -6.397
REMARK INTER:                  -5.975
REMARK INTRA:                  -0.422
REMARK UNBOUND:                -0.468
REMARK  Name = 6877
REMARK  5 active torsions:
REMARK  status: ('A' for Active; 'I' for Inactive)
REMARK    1  A    between atoms: O_1  and  C_8
REMARK    2  A    between atoms: O_1  and  C_10
REMARK    3  A    between atoms: N_3  and  C_5
REMARK    4  A    between atoms: C_4  and  C_8
REMARK    5  A    between atoms: C_10  and  C_12
REMARK                            x       y       z     vdW  Elec       q    Type
REMARK                         _______ _______ _______ _____ _____    ______ ____
ROOT
ATOM      1  C   UNL     1       4.609 -13.437   1.778  0.00  0.00    +0.000 A 
ATOM      2  C   UNL     1       4.147 -12.226   1.263  0.00  0.00    +0.000 A 
ATOM      3  C   UNL     1       3.907 -14.071   2.803  0.00  0.00    +0.000 A 
ATOM      4  C   UNL     1       2.984 -11.650   1.771  0.00  0.00    +0.000 A 
ATOM      5  C   UNL     1       2.744 -13.494   3.312  0.00  0.00    +0.000 A 
ATOM      6  C   UNL     1       2.281 -12.284   2.797  0.00  0.00    +0.000 A 
ATOM      7  H   UNL     1       4.231 -15.023   3.219  0.00  0.00    +0.000 HD
ATOM      8  H   UNL     1       2.613 -10.707   1.378  0.00  0.00    +0.000 HD
ATOM      9  H   UNL     1       2.196 -13.990   4.108  0.00  0.00    +0.000 HD
ATOM     10  H   UNL     1       1.375 -11.835   3.193  0.00  0.00    +0.000 HD
ENDROOT
BRANCH   2  11
ATOM     11  N   UNL     1       4.843 -11.568   0.224  0.00  0.00    +0.000 N 
ATOM     12  H   UNL     1       4.347 -11.042  -0.481  0.00  0.00    +0.000 HD
ATOM     13  H   UNL     1       5.852 -11.634   0.177  0.00  0.00    +0.000 HD
ENDBRANCH   2  11
BRANCH   1  15
ATOM     14  O   UNL     1       5.844 -15.129   0.639  0.00  0.00    +0.000 OA
ATOM     15  C   UNL     1       5.821 -14.066   1.268  0.00  0.00    +0.000 C 
BRANCH  15  16
ATOM     16  O   UNL     1       6.932 -13.329   1.573  0.00  0.00    +0.000 OA
BRANCH  16  17
ATOM     17  C   UNL     1       8.195 -13.872   1.172  0.00  0.00    +0.000 C 
ATOM     18  H   UNL     1       8.027 -14.725   0.505  0.00  0.00    +0.000 HD
ATOM     19  H   UNL     1       8.771 -13.105   0.645  0.00  0.00    +0.000 HD
BRANCH  17  20
ATOM     20  C   UNL     1       8.949 -14.324   2.405  0.00  0.00    +0.000 C 
ATOM     21  H   UNL     1       9.566 -15.201   2.186  0.00  0.00    +0.000 HD
ATOM     22  H   UNL     1       9.595 -13.522   2.777  0.00  0.00    +0.000 HD
ATOM     23  H   UNL     1       8.254 -14.573   3.213  0.00  0.00    +0.000 HD
ENDBRANCH  17  20
ENDBRANCH  16  17
ENDBRANCH  15  16
ENDBRANCH   1  15
TORSDOF 5
ENDMDL
MODEL 5
REMARK VINA RESULT:    -4.666      2.174      4.998
REMARK INTER + INTRA:          -6.225
REMARK INTER:                  -5.751
REMARK INTRA:                  -0.474
REMARK UNBOUND:                -0.468
REMARK  Name = 6877
REMARK  5 active torsions:
REMARK  status: ('A' for Active; 'I' for Inactive)
REMARK    1  A    between atoms: O_1  and  C_8
REMARK    2  A    between atoms: O_1  and  C_10
REMARK    3  A    between atoms: N_3  and  C_5
REMARK    4  A    between atoms: C_4  and  C_8
REMARK    5  A    between atoms: C_10  and  C_12
REMARK                            x       y       z     vdW  Elec       q    Type
REMARK                         _______ _______ _______ _____ _____    ______ ____
ROOT
ATOM      1  C   UNL     1       7.672 -11.546  -0.258  0.00  0.00    +0.000 A 
ATOM      2  C   UNL     1       8.382 -12.350  -1.149  0.00  0.00    +0.000 A 
ATOM      3  C   UNL     1       8.074 -10.229  -0.035  0.00  0.00    +0.000 A 
ATOM      4  C   UNL     1       9.492 -11.838  -1.819  0.00  0.00    +0.000 A 
ATOM      5  C   UNL     1       9.186  -9.717  -0.704  0.00  0.00    +0.000 A 
ATOM      6  C   UNL     1       9.895 -10.520  -1.596  0.00  0.00    +0.000 A 
ATOM      7  H   UNL     1       7.536  -9.571   0.643  0.00  0.00    +0.000 HD
ATOM      8  H   UNL     1      10.053 -12.453  -2.517  0.00  0.00    +0.000 HD
ATOM      9  H   UNL     1       9.496  -8.690  -0.533  0.00  0.00    +0.000 HD
ATOM     10  H   UNL     1      10.760 -10.121  -2.118  0.00  0.00    +0.000 HD
ENDROOT
BRANCH   2  11
ATOM     11  N   UNL     1       7.990 -13.687  -1.390  0.00  0.00    +0.000 N 
ATOM     12  H   UNL     1       8.636 -14.450  -1.245  0.00  0.00    +0.000 HD
ATOM     13  H   UNL     1       7.056 -13.883  -1.724  0.00  0.00    +0.000 HD
ENDBRANCH   2  11
BRANCH   1  15
ATOM     14  O   UNL     1       6.380 -12.031   1.687  0.00  0.00    +0.000 OA
ATOM     15  C   UNL     1       6.507 -12.052   0.458  0.00  0.00    +0.000 C 
BRANCH  15  16
ATOM     16  O   UNL     1       5.570 -12.553  -0.404  0.00  0.00    +0.000 OA
BRANCH  16  17
ATOM     17  C   UNL     1       4.701 -11.603  -1.031  0.00  0.00    +0.000 C 
ATOM     18  H   UNL     1       5.232 -10.654  -1.159  0.00  0.00    +0.000 HD
ATOM     19  H   UNL     1       4.393 -11.984  -2.011  0.00  0.00    +0.000 HD
BRANCH  17  20
ATOM     20  C   UNL     1       3.484 -11.397  -0.155  0.00  0.00    +0.000 C 
ATOM     21  H   UNL     1       2.876 -12.305  -0.109  0.00  0.00    +0.000 HD
ATOM     22  H   UNL     1       3.783 -11.120   0.861  0.00  0.00    +0.000 HD
ATOM     23  H   UNL     1       2.867 -10.578  -0.539  0.00  0.00    +0.000 HD
ENDBRANCH  17  20
ENDBRANCH  16  17
ENDBRANCH  15  16
ENDBRANCH   1  15
TORSDOF 5
ENDMDL
MODEL 6
REMARK VINA RESULT:    -4.572     23.477     24.235
REMARK INTER + INTRA:          -6.110
REMARK INTER:                  -5.727
REMARK INTRA:                  -0.383
REMARK UNBOUND:                -0.468
REMARK  Name = 6877
REMARK  5 active torsions:
REMARK  status: ('A' for Active; 'I' for Inactive)
REMARK    1  A    between atoms: O_1  and  C_8
REMARK    2  A    between atoms: O_1  and  C_10
REMARK    3  A    between atoms: N_3  and  C_5
REMARK    4  A    between atoms: C_4  and  C_8
REMARK    5  A    between atoms: C_10  and  C_12
REMARK                            x       y       z     vdW  Elec       q    Type
REMARK                         _______ _______ _______ _____ _____    ______ ____
ROOT
ATOM      1  C   UNL     1      16.599   8.769   2.939  0.00  0.00    +0.000 A 
ATOM      2  C   UNL     1      16.041   9.487   1.882  0.00  0.00    +0.000 A 
ATOM      3  C   UNL     1      16.290   9.112   4.255  0.00  0.00    +0.000 A 
ATOM      4  C   UNL     1      15.172  10.548   2.140  0.00  0.00    +0.000 A 
ATOM      5  C   UNL     1      15.422  10.173   4.513  0.00  0.00    +0.000 A 
ATOM      6  C   UNL     1      14.863  10.891   3.457  0.00  0.00    +0.000 A 
ATOM      7  H   UNL     1      16.697   8.565   5.102  0.00  0.00    +0.000 HD
ATOM      8  H   UNL     1      14.730  11.115   1.326  0.00  0.00    +0.000 HD
ATOM      9  H   UNL     1      15.179  10.438   5.538  0.00  0.00    +0.000 HD
ATOM     10  H   UNL     1      14.187  11.717   3.658  0.00  0.00    +0.000 HD
ENDROOT
BRANCH   2  11
ATOM     11  N   UNL     1      16.341   9.155   0.541  0.00  0.00    +0.000 N 
ATOM     12  H   UNL     1      16.294   8.198   0.221  0.00  0.00    +0.000 HD
ATOM     13  H   UNL     1      16.618   9.883  -0.104  0.00  0.00    +0.000 HD
ENDBRANCH   2  11
BRANCH   1  15
ATOM     14  O   UNL     1      17.285   6.488   3.038  0.00  0.00    +0.000 OA
ATOM     15  C   UNL     1      17.510   7.655   2.702  0.00  0.00    +0.000 C 
BRANCH  15  16
ATOM     16  O   UNL     1      18.645   8.066   2.060  0.00  0.00    +0.000 OA
BRANCH  16  17
ATOM     17  C   UNL     1      19.737   7.141   2.028  0.00  0.00    +0.000 C 
ATOM     18  H   UNL     1      20.465   7.413   2.800  0.00  0.00    +0.000 HD
ATOM     19  H   UNL     1      19.363   6.130   2.219  0.00  0.00    +0.000 HD
BRANCH  17  20
ATOM     20  C   UNL     1      20.390   7.198   0.663  0.00  0.00    +0.000 C 
ATOM     21  H   UNL     1      19.898   7.936   0.024  0.00  0.00    +0.000 HD
ATOM     22  H   UNL     1      21.450   7.460   0.754  0.00  0.00    +0.000 HD
ATOM     23  H   UNL     1      20.345   6.220   0.173  0.00  0.00    +0.000 HD
ENDBRANCH  17  20
ENDBRANCH  16  17
ENDBRANCH  15  16
ENDBRANCH   1  15
TORSDOF 5
ENDMDL
MODEL 7
REMARK VINA RESULT:    -4.529      6.096      7.776
REMARK INTER + INTRA:          -6.057
REMARK INTER:                  -5.633
REMARK INTRA:                  -0.423
REMARK UNBOUND:                -0.468
REMARK  Name = 6877
REMARK  5 active torsions:
REMARK  status: ('A' for Active; 'I' for Inactive)
REMARK    1  A    between atoms: O_1  and  C_8
REMARK    2  A    between atoms: O_1  and  C_10
REMARK    3  A    between atoms: N_3  and  C_5
REMARK    4  A    between atoms: C_4  and  C_8
REMARK    5  A    between atoms: C_10  and  C_12
REMARK                            x       y       z     vdW  Elec       q    Type
REMARK                         _______ _______ _______ _____ _____    ______ ____
ROOT
ATOM      1  C   UNL     1      11.294  -9.931  -2.343  0.00  0.00    +0.000 A 
ATOM      2  C   UNL     1      10.554 -11.099  -2.519  0.00  0.00    +0.000 A 
ATOM      3  C   UNL     1      10.940  -9.024  -1.344  0.00  0.00    +0.000 A 
ATOM      4  C   UNL     1       9.459 -11.362  -1.696  0.00  0.00    +0.000 A 
ATOM      5  C   UNL     1       9.844  -9.287  -0.522  0.00  0.00    +0.000 A 
ATOM      6  C   UNL     1       9.104 -10.455  -0.697  0.00  0.00    +0.000 A 
ATOM      7  H   UNL     1      11.503  -8.111  -1.170  0.00  0.00    +0.000 HD
ATOM      8  H   UNL     1       8.874 -12.269  -1.822  0.00  0.00    +0.000 HD
ATOM      9  H   UNL     1       9.570  -8.582   0.259  0.00  0.00    +0.000 HD
ATOM     10  H   UNL     1       8.251 -10.660  -0.056  0.00  0.00    +0.000 HD
ENDROOT
BRANCH   2  11
ATOM     11  N   UNL     1      10.897 -12.031  -3.525  0.00  0.00    +0.000 N 
ATOM     12  H   UNL     1      11.576 -11.800  -4.236  0.00  0.00    +0.000 HD
ATOM     13  H   UNL     1      10.447 -12.937  -3.543  0.00  0.00    +0.000 HD
ENDBRANCH   2  11
BRANCH   1  15
ATOM     14  O   UNL     1      13.615  -9.611  -2.790  0.00  0.00    +0.000 OA
ATOM     15  C   UNL     1      12.444  -9.627  -3.186  0.00  0.00    +0.000 C 
BRANCH  15  16
ATOM     16  O   UNL     1      12.064  -9.363  -4.473  0.00  0.00    +0.000 OA
BRANCH  16  17
ATOM     17  C   UNL     1      12.956  -9.791  -5.508  0.00  0.00    +0.000 C 
ATOM     18  H   UNL     1      13.712 -10.459  -5.082  0.00  0.00    +0.000 HD
ATOM     19  H   UNL     1      12.390 -10.325  -6.279  0.00  0.00    +0.000 HD
BRANCH  17  20
ATOM     20  C   UNL     1      13.627  -8.576  -6.113  0.00  0.00    +0.000 C 
ATOM     21  H   UNL     1      13.854  -7.831  -5.344  0.00  0.00    +0.000 HD
ATOM     22  H   UNL     1      14.557  -8.859  -6.616  0.00  0.00    +0.000 HD
ATOM     23  H   UNL     1      12.983  -8.117  -6.870  0.00  0.00    +0.000 HD
ENDBRANCH  17  20
ENDBRANCH  16  17
ENDBRANCH  15  16
ENDBRANCH   1  15
TORSDOF 5
ENDMDL
MODEL 8
REMARK VINA RESULT:    -4.440     14.270     16.075
REMARK INTER + INTRA:          -5.947
REMARK INTER:                  -5.568
REMARK INTRA:                  -0.379
REMARK UNBOUND:                -0.468
REMARK  Name = 6877
REMARK  5 active torsions:
REMARK  status: ('A' for Active; 'I' for Inactive)
REMARK    1  A    between atoms: O_1  and  C_8
REMARK    2  A    between atoms: O_1  and  C_10
REMARK    3  A    between atoms: N_3  and  C_5
REMARK    4  A    between atoms: C_4  and  C_8
REMARK    5  A    between atoms: C_10  and  C_12
REMARK                            x       y       z     vdW  Elec       q    Type
REMARK                         _______ _______ _______ _____ _____    ______ ____
ROOT
ATOM      1  C   UNL     1      -9.643 -15.541   7.099  0.00  0.00    +0.000 A 
ATOM      2  C   UNL     1      -9.759 -16.343   8.235  0.00  0.00    +0.000 A 
ATOM      3  C   UNL     1     -10.779 -14.956   6.541  0.00  0.00    +0.000 A 
ATOM      4  C   UNL     1     -11.010 -16.558   8.812  0.00  0.00    +0.000 A 
ATOM      5  C   UNL     1     -12.030 -15.172   7.118  0.00  0.00    +0.000 A 
ATOM      6  C   UNL     1     -12.147 -15.972   8.253  0.00  0.00    +0.000 A 
ATOM      7  H   UNL     1     -10.723 -14.315   5.664  0.00  0.00    +0.000 HD
ATOM      8  H   UNL     1     -11.114 -17.180   9.698  0.00  0.00    +0.000 HD
ATOM      9  H   UNL     1     -12.914 -14.712   6.685  0.00  0.00    +0.000 HD
ATOM     10  H   UNL     1     -13.121 -16.139   8.704  0.00  0.00    +0.000 HD
ENDROOT
BRANCH   2  11
ATOM     11  N   UNL     1      -8.620 -16.946   8.816  0.00  0.00    +0.000 N 
ATOM     12  H   UNL     1      -8.497 -16.960   9.819  0.00  0.00    +0.000 HD
ATOM     13  H   UNL     1      -7.913 -17.356   8.221  0.00  0.00    +0.000 HD
ENDBRANCH   2  11
BRANCH   1  15
ATOM     14  O   UNL     1      -8.023 -15.726   5.360  0.00  0.00    +0.000 OA
ATOM     15  C   UNL     1      -8.350 -15.297   6.472  0.00  0.00    +0.000 C 
BRANCH  15  16
ATOM     16  O   UNL     1      -7.544 -14.533   7.269  0.00  0.00    +0.000 OA
BRANCH  16  17
ATOM     17  C   UNL     1      -7.015 -13.335   6.690  0.00  0.00    +0.000 C 
ATOM     18  H   UNL     1      -7.595 -13.078   5.796  0.00  0.00    +0.000 HD
ATOM     19  H   UNL     1      -7.083 -12.519   7.416  0.00  0.00    +0.000 HD
BRANCH  17  20
ATOM     20  C   UNL     1      -5.567 -13.569   6.313  0.00  0.00    +0.000 C 
ATOM     21  H   UNL     1      -5.108 -14.314   6.969  0.00  0.00    +0.000 HD
ATOM     22  H   UNL     1      -5.490 -13.914   5.277  0.00  0.00    +0.000 HD
ATOM     23  H   UNL     1      -4.996 -12.637   6.382  0.00  0.00    +0.000 HD
ENDBRANCH  17  20
ENDBRANCH  16  17
ENDBRANCH  15  16
ENDBRANCH   1  15
TORSDOF 5
ENDMDL
MODEL 9
REMARK VINA RESULT:    -4.432     25.079     26.048
REMARK INTER + INTRA:          -5.937
REMARK INTER:                  -5.543
REMARK INTRA:                  -0.394
REMARK UNBOUND:                -0.468
REMARK  Name = 6877
REMARK  5 active torsions:
REMARK  status: ('A' for Active; 'I' for Inactive)
REMARK    1  A    between atoms: O_1  and  C_8
REMARK    2  A    between atoms: O_1  and  C_10
REMARK    3  A    between atoms: N_3  and  C_5
REMARK    4  A    between atoms: C_4  and  C_8
REMARK    5  A    between atoms: C_10  and  C_12
REMARK                            x       y       z     vdW  Elec       q    Type
REMARK                         _______ _______ _______ _____ _____    ______ ____
ROOT
ATOM      1  C   UNL     1       7.832  12.945  -4.026  0.00  0.00    +0.000 A 
ATOM      2  C   UNL     1       6.911  13.553  -3.173  0.00  0.00    +0.000 A 
ATOM      3  C   UNL     1       8.765  12.042  -3.515  0.00  0.00    +0.000 A 
ATOM      4  C   UNL     1       6.922  13.258  -1.810  0.00  0.00    +0.000 A 
ATOM      5  C   UNL     1       8.776  11.748  -2.152  0.00  0.00    +0.000 A 
ATOM      6  C   UNL     1       7.856  12.355  -1.299  0.00  0.00    +0.000 A 
ATOM      7  H   UNL     1       9.487  11.540  -4.154  0.00  0.00    +0.000 HD
ATOM      8  H   UNL     1       6.210  13.724  -1.134  0.00  0.00    +0.000 HD
ATOM      9  H   UNL     1       9.500  11.042  -1.756  0.00  0.00    +0.000 HD
ATOM     10  H   UNL     1       7.864  12.125  -0.238  0.00  0.00    +0.000 HD
ENDROOT
BRANCH   2  11
ATOM     11  N   UNL     1       5.957  14.471  -3.670  0.00  0.00    +0.000 N 
ATOM     12  H   UNL     1       4.983  14.394  -3.415  0.00  0.00    +0.000 HD
ATOM     13  H   UNL     1       6.251  15.205  -4.300  0.00  0.00    +0.000 HD
ENDBRANCH   2  11
BRANCH   1  15
ATOM     14  O   UNL     1       6.835  13.292  -6.164  0.00  0.00    +0.000 OA
ATOM     15  C   UNL     1       7.846  13.232  -5.455  0.00  0.00    +0.000 C 
BRANCH  15  16
ATOM     16  O   UNL     1       9.119  13.427  -5.913  0.00  0.00    +0.000 OA
BRANCH  16  17
ATOM     17  C   UNL     1       9.476  12.758  -7.128  0.00  0.00    +0.000 C 
ATOM     18  H   UNL     1      10.308  12.072  -6.933  0.00  0.00    +0.000 HD
ATOM     19  H   UNL     1       8.615  12.192  -7.498  0.00  0.00    +0.000 HD
BRANCH  17  20
ATOM     20  C   UNL     1       9.892  13.791  -8.154  0.00  0.00    +0.000 C 
ATOM     21  H   UNL     1       9.034  14.121  -8.747  0.00  0.00    +0.000 HD
ATOM     22  H   UNL     1      10.339  14.662  -7.665  0.00  0.00    +0.000 HD
ATOM     23  H   UNL     1      10.651  13.381  -8.828  0.00  0.00    +0.000 HD
ENDBRANCH  17  20
ENDBRANCH  16  17
ENDBRANCH  15  16
ENDBRANCH   1  15
TORSDOF 5
ENDMDL
MODEL 10
REMARK VINA RESULT:    -4.341     26.354     28.045
REMARK INTER + INTRA:          -5.824
REMARK INTER:                  -5.356
REMARK INTRA:                  -0.468
REMARK UNBOUND:                -0.468
REMARK  Name = 6877
REMARK  5 active torsions:
REMARK  status: ('A' for Active; 'I' for Inactive)
REMARK    1  A    between atoms: O_1  and  C_8
REMARK    2  A    between atoms: O_1  and  C_10
REMARK    3  A    between atoms: N_3  and  C_5
REMARK    4  A    between atoms: C_4  and  C_8
REMARK    5  A    between atoms: C_10  and  C_12
REMARK                            x       y       z     vdW  Elec       q    Type
REMARK                         _______ _______ _______ _____ _____    ______ ____
ROOT
ATOM      1  C   UNL     1       7.781  14.256  -6.953  0.00  0.00    +0.000 A 
ATOM      2  C   UNL     1       7.700  13.268  -5.971  0.00  0.00    +0.000 A 
ATOM      3  C   UNL     1       8.902  14.327  -7.779  0.00  0.00    +0.000 A 
ATOM      4  C   UNL     1       8.739  12.351  -5.817  0.00  0.00    +0.000 A 
ATOM      5  C   UNL     1       9.941  13.410  -7.624  0.00  0.00    +0.000 A 
ATOM      6  C   UNL     1       9.861  12.422  -6.644  0.00  0.00    +0.000 A 
ATOM      7  H   UNL     1       8.991  15.075  -8.563  0.00  0.00    +0.000 HD
ATOM      8  H   UNL     1       8.688  11.576  -5.057  0.00  0.00    +0.000 HD
ATOM      9  H   UNL     1      10.812  13.463  -8.271  0.00  0.00    +0.000 HD
ATOM     10  H   UNL     1      10.669  11.707  -6.524  0.00  0.00    +0.000 HD
ENDROOT
BRANCH   2  11
ATOM     11  N   UNL     1       6.572  13.179  -5.123  0.00  0.00    +0.000 N 
ATOM     12  H   UNL     1       6.341  12.313  -4.657  0.00  0.00    +0.000 HD
ATOM     13  H   UNL     1       5.980  13.988  -4.991  0.00  0.00    +0.000 HD
ENDBRANCH   2  11
BRANCH   1  15
ATOM     14  O   UNL     1       6.339  16.030  -6.274  0.00  0.00    +0.000 OA
ATOM     15  C   UNL     1       6.711  15.229  -7.139  0.00  0.00    +0.000 C 
BRANCH  15  16
ATOM     16  O   UNL     1       6.172  15.145  -8.393  0.00  0.00    +0.000 OA
BRANCH  16  17
ATOM     17  C   UNL     1       6.146  16.351  -9.165  0.00  0.00    +0.000 C 
ATOM     18  H   UNL     1       5.137  16.504  -9.564  0.00  0.00    +0.000 HD
ATOM     19  H   UNL     1       6.417  17.198  -8.526  0.00  0.00    +0.000 HD
BRANCH  17  20
ATOM     20  C   UNL     1       7.136  16.228 -10.303  0.00  0.00    +0.000 C 
ATOM     21  H   UNL     1       7.341  17.205 -10.750  0.00  0.00    +0.000 HD
ATOM     22  H   UNL     1       8.078  15.796  -9.950  0.00  0.00    +0.000 HD
ATOM     23  H   UNL     1       6.750  15.558 -11.079  0.00  0.00    +0.000 HD
ENDBRANCH  17  20
ENDBRANCH  16  17
ENDBRANCH  15  16
ENDBRANCH   1  15
TORSDOF 5
ENDMDL
