MODEL 1
REMARK VINA RESULT:    -4.925      0.000      0.000
REMARK INTER + INTRA:          -7.406
REMARK INTER:                  -6.999
REMARK INTRA:                  -0.407
REMARK UNBOUND:                -0.897
REMARK  Name = 12813
REMARK  6 active torsions:
REMARK  status: ('A' for Active; 'I' for Inactive)
REMARK    1  A    between atoms: C_3  and  C_4
REMARK    2  A    between atoms: C_4  and  C_6
REMARK    3  A    between atoms: C_6  and  C_7
REMARK    4  A    between atoms: C_7  and  C_9
REMARK    5  A    between atoms: C_9  and  C_11
REMARK    6  A    between atoms: C_11  and  C_12
REMARK                            x       y       z     vdW  Elec       q    Type
REMARK                         _______ _______ _______ _____ _____    ______ ____
ROOT
ATOM      1  C   UNL     1       5.548  -3.577  -1.906  0.00  0.00    +0.000 C 
ATOM      2  H   UNL     1       5.189  -4.447  -2.469  0.00  0.00    +0.000 HD
ATOM      3  H   UNL     1       5.875  -3.939  -0.924  0.00  0.00    +0.000 HD
ENDROOT
BRANCH   1   4
ATOM      4  C   UNL     1       6.722  -2.935  -2.646  0.00  0.00    +0.000 C 
ATOM      5  H   UNL     1       6.851  -3.413  -3.624  0.00  0.00    +0.000 HD
ATOM      6  H   UNL     1       6.481  -1.879  -2.825  0.00  0.00    +0.000 HD
BRANCH   4   9
ATOM      7  O   UNL     1       7.758  -2.693  -0.478  0.00  0.00    +0.000 OA
ATOM      8  O   UNL     1       8.982  -1.718   1.200  0.00  0.00    +0.000 OA
ATOM      9  C   UNL     1       8.006  -3.039  -1.847  0.00  0.00    +0.000 C 
ATOM     10  C   UNL     1       9.070  -2.062  -2.294  0.00  0.00    +0.000 C 
ATOM     11  C   UNL     1       9.890  -1.886  -1.038  0.00  0.00    +0.000 C 
ATOM     12  C   UNL     1       8.857  -2.058   0.035  0.00  0.00    +0.000 C 
ATOM     13  H   UNL     1       8.387  -4.069  -1.868  0.00  0.00    +0.000 HD
ATOM     14  H   UNL     1       8.626  -1.100  -2.575  0.00  0.00    +0.000 HD
ATOM     15  H   UNL     1       9.654  -2.425  -3.144  0.00  0.00    +0.000 HD
ATOM     16  H   UNL     1      10.346  -0.894  -0.993  0.00  0.00    +0.000 HD
ATOM     17  H   UNL     1      10.649  -2.667  -0.934  0.00  0.00    +0.000 HD
ENDBRANCH   4   9
ENDBRANCH   1   4
BRANCH   1  18
ATOM     18  C   UNL     1       4.400  -2.582  -1.714  0.00  0.00    +0.000 C 
ATOM     19  H   UNL     1       3.687  -2.677  -2.542  0.00  0.00    +0.000 HD
ATOM     20  H   UNL     1       4.791  -1.557  -1.739  0.00  0.00    +0.000 HD
BRANCH  18  21
ATOM     21  C   UNL     1       3.678  -2.819  -0.386  0.00  0.00    +0.000 C 
ATOM     22  H   UNL     1       2.636  -3.101  -0.584  0.00  0.00    +0.000 HD
ATOM     23  H   UNL     1       3.648  -1.880   0.181  0.00  0.00    +0.000 HD
BRANCH  21  24
ATOM     24  C   UNL     1       4.330  -3.902   0.475  0.00  0.00    +0.000 C 
ATOM     25  H   UNL     1       3.564  -4.611   0.808  0.00  0.00    +0.000 HD
ATOM     26  H   UNL     1       5.044  -4.468  -0.136  0.00  0.00    +0.000 HD
BRANCH  24  27
ATOM     27  C   UNL     1       5.056  -3.354   1.694  0.00  0.00    +0.000 C 
ATOM     28  H   UNL     1       5.078  -4.103   2.491  0.00  0.00    +0.000 HD
ATOM     29  H   UNL     1       4.554  -2.461   2.077  0.00  0.00    +0.000 HD
ATOM     30  H   UNL     1       6.089  -3.089   1.446  0.00  0.00    +0.000 HD
ENDBRANCH  24  27
ENDBRANCH  21  24
ENDBRANCH  18  21
ENDBRANCH   1  18
TORSDOF 6
ENDMDL
MODEL 2
REMARK VINA RESULT:    -4.643      1.926      3.074
REMARK INTER + INTRA:          -7.033
REMARK INTER:                  -6.754
REMARK INTRA:                  -0.279
REMARK UNBOUND:                -0.897
REMARK  Name = 12813
REMARK  6 active torsions:
REMARK  status: ('A' for Active; 'I' for Inactive)
REMARK    1  A    between atoms: C_3  and  C_4
REMARK    2  A    between atoms: C_4  and  C_6
REMARK    3  A    between atoms: C_6  and  C_7
REMARK    4  A    between atoms: C_7  and  C_9
REMARK    5  A    between atoms: C_9  and  C_11
REMARK    6  A    between atoms: C_11  and  C_12
REMARK                            x       y       z     vdW  Elec       q    Type
REMARK                         _______ _______ _______ _____ _____    ______ ____
ROOT
ATOM      1  C   UNL     1       3.938  -3.373   0.579  0.00  0.00    +0.000 C 
ATOM      2  H   UNL     1       3.614  -4.410   0.731  0.00  0.00    +0.000 HD
ATOM      3  H   UNL     1       3.338  -2.745   1.248  0.00  0.00    +0.000 HD
ENDROOT
BRANCH   1   4
ATOM      4  C   UNL     1       5.421  -3.242   0.926  0.00  0.00    +0.000 C 
ATOM      5  H   UNL     1       5.598  -2.293   1.447  0.00  0.00    +0.000 HD
ATOM      6  H   UNL     1       5.687  -4.053   1.616  0.00  0.00    +0.000 HD
BRANCH   4   9
ATOM      7  O   UNL     1       7.178  -4.440  -0.218  0.00  0.00    +0.000 OA
ATOM      8  O   UNL     1       9.294  -4.908  -0.972  0.00  0.00    +0.000 OA
ATOM      9  C   UNL     1       6.290  -3.319  -0.314  0.00  0.00    +0.000 C 
ATOM     10  C   UNL     1       7.206  -2.127  -0.477  0.00  0.00    +0.000 C 
ATOM     11  C   UNL     1       8.340  -2.705  -1.290  0.00  0.00    +0.000 C 
ATOM     12  C   UNL     1       8.368  -4.128  -0.819  0.00  0.00    +0.000 C 
ATOM     13  H   UNL     1       5.669  -3.459  -1.209  0.00  0.00    +0.000 HD
ATOM     14  H   UNL     1       7.590  -1.792   0.494  0.00  0.00    +0.000 HD
ATOM     15  H   UNL     1       6.719  -1.274  -0.959  0.00  0.00    +0.000 HD
ATOM     16  H   UNL     1       9.285  -2.199  -1.077  0.00  0.00    +0.000 HD
ATOM     17  H   UNL     1       8.123  -2.686  -2.362  0.00  0.00    +0.000 HD
ENDBRANCH   4   9
ENDBRANCH   1   4
BRANCH   1  18
ATOM     18  C   UNL     1       3.666  -2.960  -0.870  0.00  0.00    +0.000 C 
ATOM     19  H   UNL     1       2.789  -3.497  -1.250  0.00  0.00    +0.000 HD
ATOM     20  H   UNL     1       4.518  -3.244  -1.501  0.00  0.00    +0.000 HD
BRANCH  18  21
ATOM     21  C   UNL     1       3.432  -1.452  -0.982  0.00  0.00    +0.000 C 
ATOM     22  H   UNL     1       3.658  -1.125  -2.005  0.00  0.00    +0.000 HD
ATOM     23  H   UNL     1       4.134  -0.928  -0.321  0.00  0.00    +0.000 HD
BRANCH  21  24
ATOM     24  C   UNL     1       2.004  -1.032  -0.630  0.00  0.00    +0.000 C 
ATOM     25  H   UNL     1       1.295  -1.666  -1.175  0.00  0.00    +0.000 HD
ATOM     26  H   UNL     1       1.829  -1.203   0.439  0.00  0.00    +0.000 HD
BRANCH  24  27
ATOM     27  C   UNL     1       1.704   0.425  -0.948  0.00  0.00    +0.000 C 
ATOM     28  H   UNL     1       1.101   0.871  -0.151  0.00  0.00    +0.000 HD
ATOM     29  H   UNL     1       1.149   0.513  -1.887  0.00  0.00    +0.000 HD
ATOM     30  H   UNL     1       2.629   1.003  -1.040  0.00  0.00    +0.000 HD
ENDBRANCH  24  27
ENDBRANCH  21  24
ENDBRANCH  18  21
ENDBRANCH   1  18
TORSDOF 6
ENDMDL
MODEL 3
REMARK VINA RESULT:    -4.627      9.483     11.131
REMARK INTER + INTRA:          -7.011
REMARK INTER:                  -6.678
REMARK INTRA:                  -0.333
REMARK UNBOUND:                -0.897
REMARK  Name = 12813
REMARK  6 active torsions:
REMARK  status: ('A' for Active; 'I' for Inactive)
REMARK    1  A    between atoms: C_3  and  C_4
REMARK    2  A    between atoms: C_4  and  C_6
REMARK    3  A    between atoms: C_6  and  C_7
REMARK    4  A    between atoms: C_7  and  C_9
REMARK    5  A    between atoms: C_9  and  C_11
REMARK    6  A    between atoms: C_11  and  C_12
REMARK                            x       y       z     vdW  Elec       q    Type
REMARK                         _______ _______ _______ _____ _____    ______ ____
ROOT
ATOM      1  C   UNL     1       5.751 -13.588  -0.220  0.00  0.00    +0.000 C 
ATOM      2  H   UNL     1       6.056 -13.930   0.776  0.00  0.00    +0.000 HD
ATOM      3  H   UNL     1       5.253 -14.431  -0.714  0.00  0.00    +0.000 HD
ENDROOT
BRANCH   1   4
ATOM      4  C   UNL     1       4.782 -12.413  -0.085  0.00  0.00    +0.000 C 
ATOM      5  H   UNL     1       5.234 -11.508  -0.509  0.00  0.00    +0.000 HD
ATOM      6  H   UNL     1       3.882 -12.638  -0.672  0.00  0.00    +0.000 HD
BRANCH   4   9
ATOM      7  O   UNL     1       4.311 -13.420   2.059  0.00  0.00    +0.000 OA
ATOM      8  O   UNL     1       3.057 -14.219   3.806  0.00  0.00    +0.000 OA
ATOM      9  C   UNL     1       4.403 -12.170   1.362  0.00  0.00    +0.000 C 
ATOM     10  C   UNL     1       3.034 -11.548   1.525  0.00  0.00    +0.000 C 
ATOM     11  C   UNL     1       2.636 -12.010   2.906  0.00  0.00    +0.000 C 
ATOM     12  C   UNL     1       3.318 -13.342   2.998  0.00  0.00    +0.000 C 
ATOM     13  H   UNL     1       5.169 -11.563   1.862  0.00  0.00    +0.000 HD
ATOM     14  H   UNL     1       2.329 -11.953   0.790  0.00  0.00    +0.000 HD
ATOM     15  H   UNL     1       3.043 -10.459   1.420  0.00  0.00    +0.000 HD
ATOM     16  H   UNL     1       1.552 -12.114   2.998  0.00  0.00    +0.000 HD
ATOM     17  H   UNL     1       3.029 -11.352   3.686  0.00  0.00    +0.000 HD
ENDBRANCH   4   9
ENDBRANCH   1   4
BRANCH   1  18
ATOM     18  C   UNL     1       6.991 -13.197  -1.029  0.00  0.00    +0.000 C 
ATOM     19  H   UNL     1       6.695 -12.575  -1.883  0.00  0.00    +0.000 HD
ATOM     20  H   UNL     1       7.468 -14.098  -1.433  0.00  0.00    +0.000 HD
BRANCH  18  21
ATOM     21  C   UNL     1       7.998 -12.434  -0.165  0.00  0.00    +0.000 C 
ATOM     22  H   UNL     1       8.727 -13.140   0.251  0.00  0.00    +0.000 HD
ATOM     23  H   UNL     1       7.474 -11.983   0.687  0.00  0.00    +0.000 HD
BRANCH  21  24
ATOM     24  C   UNL     1       8.747 -11.340  -0.929  0.00  0.00    +0.000 C 
ATOM     25  H   UNL     1       9.824 -11.450  -0.758  0.00  0.00    +0.000 HD
ATOM     26  H   UNL     1       8.580 -11.472  -2.005  0.00  0.00    +0.000 HD
BRANCH  24  27
ATOM     27  C   UNL     1       8.328  -9.931  -0.537  0.00  0.00    +0.000 C 
ATOM     28  H   UNL     1       8.786  -9.651   0.416  0.00  0.00    +0.000 HD
ATOM     29  H   UNL     1       7.242  -9.863  -0.428  0.00  0.00    +0.000 HD
ATOM     30  H   UNL     1       8.644  -9.206  -1.294  0.00  0.00    +0.000 HD
ENDBRANCH  24  27
ENDBRANCH  21  24
ENDBRANCH  18  21
ENDBRANCH   1  18
TORSDOF 6
ENDMDL
MODEL 4
REMARK VINA RESULT:    -4.594      1.721      2.459
REMARK INTER + INTRA:          -6.967
REMARK INTER:                  -6.608
REMARK INTRA:                  -0.360
REMARK UNBOUND:                -0.897
REMARK  Name = 12813
REMARK  6 active torsions:
REMARK  status: ('A' for Active; 'I' for Inactive)
REMARK    1  A    between atoms: C_3  and  C_4
REMARK    2  A    between atoms: C_4  and  C_6
REMARK    3  A    between atoms: C_6  and  C_7
REMARK    4  A    between atoms: C_7  and  C_9
REMARK    5  A    between atoms: C_9  and  C_11
REMARK    6  A    between atoms: C_11  and  C_12
REMARK                            x       y       z     vdW  Elec       q    Type
REMARK                         _______ _______ _______ _____ _____    ______ ____
ROOT
ATOM      1  C   UNL     1       6.490  -2.490  -0.322  0.00  0.00    +0.000 C 
ATOM      2  H   UNL     1       5.926  -1.946   0.445  0.00  0.00    +0.000 HD
ATOM      3  H   UNL     1       6.912  -1.742  -1.005  0.00  0.00    +0.000 HD
ENDROOT
BRANCH   1   4
ATOM      4  C   UNL     1       7.613  -3.290   0.337  0.00  0.00    +0.000 C 
ATOM      5  H   UNL     1       7.627  -3.092   1.416  0.00  0.00    +0.000 HD
ATOM      6  H   UNL     1       7.401  -4.359   0.201  0.00  0.00    +0.000 HD
BRANCH   4   9
ATOM      7  O   UNL     1       9.037  -1.550  -0.544  0.00  0.00    +0.000 OA
ATOM      8  O   UNL     1      10.095  -0.258  -2.117  0.00  0.00    +0.000 OA
ATOM      9  C   UNL     1       8.963  -2.955  -0.266  0.00  0.00    +0.000 C 
ATOM     10  C   UNL     1       9.201  -3.615  -1.605  0.00  0.00    +0.000 C 
ATOM     11  C   UNL     1      10.186  -2.673  -2.255  0.00  0.00    +0.000 C 
ATOM     12  C   UNL     1       9.783  -1.351  -1.675  0.00  0.00    +0.000 C 
ATOM     13  H   UNL     1       9.768  -3.200   0.439  0.00  0.00    +0.000 HD
ATOM     14  H   UNL     1       8.279  -3.642  -2.199  0.00  0.00    +0.000 HD
ATOM     15  H   UNL     1       9.575  -4.639  -1.518  0.00  0.00    +0.000 HD
ATOM     16  H   UNL     1      10.084  -2.675  -3.343  0.00  0.00    +0.000 HD
ATOM     17  H   UNL     1      11.216  -2.895  -1.962  0.00  0.00    +0.000 HD
ENDBRANCH   4   9
ENDBRANCH   1   4
BRANCH   1  18
ATOM     18  C   UNL     1       5.541  -3.401  -1.104  0.00  0.00    +0.000 C 
ATOM     19  H   UNL     1       5.145  -4.179  -0.441  0.00  0.00    +0.000 HD
ATOM     20  H   UNL     1       6.093  -3.909  -1.905  0.00  0.00    +0.000 HD
BRANCH  18  21
ATOM     21  C   UNL     1       4.383  -2.606  -1.711  0.00  0.00    +0.000 C 
ATOM     22  H   UNL     1       4.080  -3.071  -2.657  0.00  0.00    +0.000 HD
ATOM     23  H   UNL     1       4.729  -1.593  -1.954  0.00  0.00    +0.000 HD
BRANCH  21  24
ATOM     24  C   UNL     1       3.164  -2.511  -0.791  0.00  0.00    +0.000 C 
ATOM     25  H   UNL     1       2.478  -3.338  -1.012  0.00  0.00    +0.000 HD
ATOM     26  H   UNL     1       3.487  -2.634   0.250  0.00  0.00    +0.000 HD
BRANCH  24  27
ATOM     27  C   UNL     1       2.408  -1.198  -0.918  0.00  0.00    +0.000 C 
ATOM     28  H   UNL     1       2.961  -0.502  -1.557  0.00  0.00    +0.000 HD
ATOM     29  H   UNL     1       2.273  -0.730   0.061  0.00  0.00    +0.000 HD
ATOM     30  H   UNL     1       1.420  -1.358  -1.363  0.00  0.00    +0.000 HD
ENDBRANCH  24  27
ENDBRANCH  21  24
ENDBRANCH  18  21
ENDBRANCH   1  18
TORSDOF 6
ENDMDL
MODEL 5
REMARK VINA RESULT:    -4.528     16.805     19.440
REMARK INTER + INTRA:          -6.881
REMARK INTER:                  -6.638
REMARK INTRA:                  -0.243
REMARK UNBOUND:                -0.897
REMARK  Name = 12813
REMARK  6 active torsions:
REMARK  status: ('A' for Active; 'I' for Inactive)
REMARK    1  A    between atoms: C_3  and  C_4
REMARK    2  A    between atoms: C_4  and  C_6
REMARK    3  A    between atoms: C_6  and  C_7
REMARK    4  A    between atoms: C_7  and  C_9
REMARK    5  A    between atoms: C_9  and  C_11
REMARK    6  A    between atoms: C_11  and  C_12
REMARK                            x       y       z     vdW  Elec       q    Type
REMARK                         _______ _______ _______ _____ _____    ______ ____
ROOT
ATOM      1  C   UNL     1       0.370  -5.157  16.210  0.00  0.00    +0.000 C 
ATOM      2  H   UNL     1      -0.155  -4.195  16.254  0.00  0.00    +0.000 HD
ATOM      3  H   UNL     1       1.236  -5.084  16.878  0.00  0.00    +0.000 HD
ENDROOT
BRANCH   1   4
ATOM      4  C   UNL     1      -0.563  -6.273  16.681  0.00  0.00    +0.000 C 
ATOM      5  H   UNL     1      -1.313  -5.864  17.370  0.00  0.00    +0.000 HD
ATOM      6  H   UNL     1      -1.098  -6.668  15.808  0.00  0.00    +0.000 HD
BRANCH   4   9
ATOM      7  O   UNL     1      -0.093  -8.641  16.726  0.00  0.00    +0.000 OA
ATOM      8  O   UNL     1      -0.222 -10.824  17.419  0.00  0.00    +0.000 OA
ATOM      9  C   UNL     1       0.205  -7.390  17.359  0.00  0.00    +0.000 C 
ATOM     10  C   UNL     1      -0.190  -7.597  18.804  0.00  0.00    +0.000 C 
ATOM     11  C   UNL     1       0.154  -9.051  19.024  0.00  0.00    +0.000 C 
ATOM     12  C   UNL     1      -0.086  -9.638  17.665  0.00  0.00    +0.000 C 
ATOM     13  H   UNL     1       1.286  -7.220  17.271  0.00  0.00    +0.000 HD
ATOM     14  H   UNL     1      -1.269  -7.455  18.940  0.00  0.00    +0.000 HD
ATOM     15  H   UNL     1       0.328  -6.921  19.491  0.00  0.00    +0.000 HD
ATOM     16  H   UNL     1      -0.498  -9.508  19.773  0.00  0.00    +0.000 HD
ATOM     17  H   UNL     1       1.206  -9.184  19.292  0.00  0.00    +0.000 HD
ENDBRANCH   4   9
ENDBRANCH   1   4
BRANCH   1  18
ATOM     18  C   UNL     1       0.860  -5.408  14.781  0.00  0.00    +0.000 C 
ATOM     19  H   UNL     1       0.107  -5.058  14.065  0.00  0.00    +0.000 HD
ATOM     20  H   UNL     1       0.987  -6.485  14.618  0.00  0.00    +0.000 HD
BRANCH  18  21
ATOM     21  C   UNL     1       2.189  -4.695  14.518  0.00  0.00    +0.000 C 
ATOM     22  H   UNL     1       2.421  -4.745  13.447  0.00  0.00    +0.000 HD
ATOM     23  H   UNL     1       2.993  -5.227  15.041  0.00  0.00    +0.000 HD
BRANCH  21  24
ATOM     24  C   UNL     1       2.188  -3.230  14.959  0.00  0.00    +0.000 C 
ATOM     25  H   UNL     1       1.416  -2.684  14.404  0.00  0.00    +0.000 HD
ATOM     26  H   UNL     1       1.919  -3.171  16.021  0.00  0.00    +0.000 HD
BRANCH  24  27
ATOM     27  C   UNL     1       3.525  -2.534  14.754  0.00  0.00    +0.000 C 
ATOM     28  H   UNL     1       3.701  -2.357  13.688  0.00  0.00    +0.000 HD
ATOM     29  H   UNL     1       4.346  -3.145  15.139  0.00  0.00    +0.000 HD
ATOM     30  H   UNL     1       3.545  -1.568  15.268  0.00  0.00    +0.000 HD
ENDBRANCH  24  27
ENDBRANCH  21  24
ENDBRANCH  18  21
ENDBRANCH   1  18
TORSDOF 6
ENDMDL
MODEL 6
REMARK VINA RESULT:    -4.446      8.632     10.495
REMARK INTER + INTRA:          -6.773
REMARK INTER:                  -6.527
REMARK INTRA:                  -0.245
REMARK UNBOUND:                -0.897
REMARK  Name = 12813
REMARK  6 active torsions:
REMARK  status: ('A' for Active; 'I' for Inactive)
REMARK    1  A    between atoms: C_3  and  C_4
REMARK    2  A    between atoms: C_4  and  C_6
REMARK    3  A    between atoms: C_6  and  C_7
REMARK    4  A    between atoms: C_7  and  C_9
REMARK    5  A    between atoms: C_9  and  C_11
REMARK    6  A    between atoms: C_11  and  C_12
REMARK                            x       y       z     vdW  Elec       q    Type
REMARK                         _______ _______ _______ _____ _____    ______ ____
ROOT
ATOM      1  C   UNL     1       6.634 -12.271   0.014  0.00  0.00    +0.000 C 
ATOM      2  H   UNL     1       6.208 -13.023  -0.662  0.00  0.00    +0.000 HD
ATOM      3  H   UNL     1       6.322 -11.288  -0.357  0.00  0.00    +0.000 HD
ENDROOT
BRANCH   1   4
ATOM      4  C   UNL     1       6.101 -12.492   1.429  0.00  0.00    +0.000 C 
ATOM      5  H   UNL     1       6.609 -13.349   1.889  0.00  0.00    +0.000 HD
ATOM      6  H   UNL     1       6.340 -11.605   2.031  0.00  0.00    +0.000 HD
BRANCH   4   9
ATOM      7  O   UNL     1       3.956 -11.717   0.636  0.00  0.00    +0.000 OA
ATOM      8  O   UNL     1       1.919 -10.662   0.693  0.00  0.00    +0.000 OA
ATOM      9  C   UNL     1       4.602 -12.721   1.428  0.00  0.00    +0.000 C 
ATOM     10  C   UNL     1       3.975 -12.581   2.797  0.00  0.00    +0.000 C 
ATOM     11  C   UNL     1       2.556 -12.192   2.459  0.00  0.00    +0.000 C 
ATOM     12  C   UNL     1       2.738 -11.419   1.187  0.00  0.00    +0.000 C 
ATOM     13  H   UNL     1       4.365 -13.699   0.988  0.00  0.00    +0.000 HD
ATOM     14  H   UNL     1       4.448 -11.771   3.364  0.00  0.00    +0.000 HD
ATOM     15  H   UNL     1       4.041 -13.495   3.395  0.00  0.00    +0.000 HD
ATOM     16  H   UNL     1       2.114 -11.568   3.240  0.00  0.00    +0.000 HD
ATOM     17  H   UNL     1       1.929 -13.066   2.260  0.00  0.00    +0.000 HD
ENDBRANCH   4   9
ENDBRANCH   1   4
BRANCH   1  18
ATOM     18  C   UNL     1       8.163 -12.357  -0.024  0.00  0.00    +0.000 C 
ATOM     19  H   UNL     1       8.470 -13.379  -0.276  0.00  0.00    +0.000 HD
ATOM     20  H   UNL     1       8.570 -12.130   0.969  0.00  0.00    +0.000 HD
BRANCH  18  21
ATOM     21  C   UNL     1       8.747 -11.379  -1.047  0.00  0.00    +0.000 C 
ATOM     22  H   UNL     1       8.280 -11.555  -2.024  0.00  0.00    +0.000 HD
ATOM     23  H   UNL     1       9.818 -11.582  -1.168  0.00  0.00    +0.000 HD
BRANCH  21  24
ATOM     24  C   UNL     1       8.555  -9.911  -0.662  0.00  0.00    +0.000 C 
ATOM     25  H   UNL     1       8.046  -9.385  -1.478  0.00  0.00    +0.000 HD
ATOM     26  H   UNL     1       7.899  -9.850   0.215  0.00  0.00    +0.000 HD
BRANCH  24  27
ATOM     27  C   UNL     1       9.858  -9.191  -0.349  0.00  0.00    +0.000 C 
ATOM     28  H   UNL     1       9.654  -8.178   0.013  0.00  0.00    +0.000 HD
ATOM     29  H   UNL     1      10.485  -9.115  -1.242  0.00  0.00    +0.000 HD
ATOM     30  H   UNL     1      10.422  -9.722   0.424  0.00  0.00    +0.000 HD
ENDBRANCH  24  27
ENDBRANCH  21  24
ENDBRANCH  18  21
ENDBRANCH   1  18
TORSDOF 6
ENDMDL
MODEL 7
REMARK VINA RESULT:    -4.329      7.885      9.582
REMARK INTER + INTRA:          -6.617
REMARK INTER:                  -6.168
REMARK INTRA:                  -0.450
REMARK UNBOUND:                -0.897
REMARK  Name = 12813
REMARK  6 active torsions:
REMARK  status: ('A' for Active; 'I' for Inactive)
REMARK    1  A    between atoms: C_3  and  C_4
REMARK    2  A    between atoms: C_4  and  C_6
REMARK    3  A    between atoms: C_6  and  C_7
REMARK    4  A    between atoms: C_7  and  C_9
REMARK    5  A    between atoms: C_9  and  C_11
REMARK    6  A    between atoms: C_11  and  C_12
REMARK                            x       y       z     vdW  Elec       q    Type
REMARK                         _______ _______ _______ _____ _____    ______ ____
ROOT
ATOM      1  C   UNL     1      11.693 -10.788  -3.263  0.00  0.00    +0.000 C 
ATOM      2  H   UNL     1      12.450 -11.459  -2.841  0.00  0.00    +0.000 HD
ATOM      3  H   UNL     1      10.723 -11.290  -3.162  0.00  0.00    +0.000 HD
ENDROOT
BRANCH   1   4
ATOM      4  C   UNL     1      11.685  -9.471  -2.489  0.00  0.00    +0.000 C 
ATOM      5  H   UNL     1      12.707  -9.209  -2.189  0.00  0.00    +0.000 HD
ATOM      6  H   UNL     1      11.324  -8.678  -3.157  0.00  0.00    +0.000 HD
BRANCH   4   9
ATOM      7  O   UNL     1       9.834 -10.604  -1.428  0.00  0.00    +0.000 OA
ATOM      8  O   UNL     1       7.682 -10.966  -0.723  0.00  0.00    +0.000 OA
ATOM      9  C   UNL     1      10.794  -9.552  -1.264  0.00  0.00    +0.000 C 
ATOM     10  C   UNL     1       9.958  -8.311  -1.050  0.00  0.00    +0.000 C 
ATOM     11  C   UNL     1       8.776  -8.851  -0.280  0.00  0.00    +0.000 C 
ATOM     12  C   UNL     1       8.659 -10.243  -0.825  0.00  0.00    +0.000 C 
ATOM     13  H   UNL     1      11.391  -9.779  -0.371  0.00  0.00    +0.000 HD
ATOM     14  H   UNL     1       9.611  -7.901  -2.006  0.00  0.00    +0.000 HD
ATOM     15  H   UNL     1      10.494  -7.519  -0.518  0.00  0.00    +0.000 HD
ATOM     16  H   UNL     1       7.871  -8.273  -0.477  0.00  0.00    +0.000 HD
ATOM     17  H   UNL     1       8.978  -8.902   0.793  0.00  0.00    +0.000 HD
ENDBRANCH   4   9
ENDBRANCH   1   4
BRANCH   1  18
ATOM     18  C   UNL     1      11.984 -10.558  -4.749  0.00  0.00    +0.000 C 
ATOM     19  H   UNL     1      11.204 -11.032  -5.357  0.00  0.00    +0.000 HD
ATOM     20  H   UNL     1      12.936 -11.034  -5.017  0.00  0.00    +0.000 HD
BRANCH  18  21
ATOM     21  C   UNL     1      12.054  -9.065  -5.076  0.00  0.00    +0.000 C 
ATOM     22  H   UNL     1      11.925  -8.485  -4.153  0.00  0.00    +0.000 HD
ATOM     23  H   UNL     1      11.216  -8.800  -5.734  0.00  0.00    +0.000 HD
BRANCH  21  24
ATOM     24  C   UNL     1      13.366  -8.650  -5.744  0.00  0.00    +0.000 C 
ATOM     25  H   UNL     1      13.386  -9.032  -6.771  0.00  0.00    +0.000 HD
ATOM     26  H   UNL     1      13.408  -7.556  -5.810  0.00  0.00    +0.000 HD
BRANCH  24  27
ATOM     27  C   UNL     1      14.603  -9.145  -5.011  0.00  0.00    +0.000 C 
ATOM     28  H   UNL     1      15.158  -8.301  -4.590  0.00  0.00    +0.000 HD
ATOM     29  H   UNL     1      15.268  -9.686  -5.690  0.00  0.00    +0.000 HD
ATOM     30  H   UNL     1      14.328  -9.816  -4.191  0.00  0.00    +0.000 HD
ENDBRANCH  24  27
ENDBRANCH  21  24
ENDBRANCH  18  21
ENDBRANCH   1  18
TORSDOF 6
ENDMDL
MODEL 8
REMARK VINA RESULT:    -4.229      1.661      4.706
REMARK INTER + INTRA:          -6.485
REMARK INTER:                  -5.588
REMARK INTRA:                  -0.897
REMARK UNBOUND:                -0.897
REMARK  Name = 12813
REMARK  6 active torsions:
REMARK  status: ('A' for Active; 'I' for Inactive)
REMARK    1  A    between atoms: C_3  and  C_4
REMARK    2  A    between atoms: C_4  and  C_6
REMARK    3  A    between atoms: C_6  and  C_7
REMARK    4  A    between atoms: C_7  and  C_9
REMARK    5  A    between atoms: C_9  and  C_11
REMARK    6  A    between atoms: C_11  and  C_12
REMARK                            x       y       z     vdW  Elec       q    Type
REMARK                         _______ _______ _______ _____ _____    ______ ____
ROOT
ATOM      1  C   UNL     1       9.388  -2.310  -0.192  0.00  0.00    +0.000 C 
ATOM      2  H   UNL     1      10.253  -2.735   0.332  0.00  0.00    +0.000 HD
ATOM      3  H   UNL     1       8.966  -3.106  -0.818  0.00  0.00    +0.000 HD
ENDROOT
BRANCH   1   4
ATOM      4  C   UNL     1       8.351  -1.839   0.827  0.00  0.00    +0.000 C 
ATOM      5  H   UNL     1       8.700  -2.061   1.843  0.00  0.00    +0.000 HD
ATOM      6  H   UNL     1       8.254  -0.749   0.743  0.00  0.00    +0.000 HD
BRANCH   4   9
ATOM      7  O   UNL     1       7.187  -3.850   0.170  0.00  0.00    +0.000 OA
ATOM      8  O   UNL     1       6.042  -5.299  -1.192  0.00  0.00    +0.000 OA
ATOM      9  C   UNL     1       7.003  -2.492   0.591  0.00  0.00    +0.000 C 
ATOM     10  C   UNL     1       6.218  -1.854  -0.531  0.00  0.00    +0.000 C 
ATOM     11  C   UNL     1       5.337  -2.991  -0.992  0.00  0.00    +0.000 C 
ATOM     12  C   UNL     1       6.203  -4.185  -0.721  0.00  0.00    +0.000 C 
ATOM     13  H   UNL     1       6.417  -2.506   1.520  0.00  0.00    +0.000 HD
ATOM     14  H   UNL     1       6.880  -1.553  -1.352  0.00  0.00    +0.000 HD
ATOM     15  H   UNL     1       5.653  -0.973  -0.213  0.00  0.00    +0.000 HD
ATOM     16  H   UNL     1       5.099  -2.909  -2.055  0.00  0.00    +0.000 HD
ATOM     17  H   UNL     1       4.424  -3.067  -0.394  0.00  0.00    +0.000 HD
ENDBRANCH   4   9
ENDBRANCH   1   4
BRANCH   1  18
ATOM     18  C   UNL     1       9.849  -1.159  -1.090  0.00  0.00    +0.000 C 
ATOM     19  H   UNL     1      10.858  -0.843  -0.799  0.00  0.00    +0.000 HD
ATOM     20  H   UNL     1       9.186  -0.296  -0.953  0.00  0.00    +0.000 HD
BRANCH  18  21
ATOM     21  C   UNL     1       9.846  -1.571  -2.564  0.00  0.00    +0.000 C 
ATOM     22  H   UNL     1      10.880  -1.704  -2.905  0.00  0.00    +0.000 HD
ATOM     23  H   UNL     1       9.418  -0.759  -3.165  0.00  0.00    +0.000 HD
BRANCH  21  24
ATOM     24  C   UNL     1       9.065  -2.859  -2.833  0.00  0.00    +0.000 C 
ATOM     25  H   UNL     1       9.731  -3.598  -3.294  0.00  0.00    +0.000 HD
ATOM     26  H   UNL     1       8.729  -3.284  -1.879  0.00  0.00    +0.000 HD
BRANCH  24  27
ATOM     27  C   UNL     1       7.855  -2.658  -3.733  0.00  0.00    +0.000 C 
ATOM     28  H   UNL     1       6.944  -2.984  -3.222  0.00  0.00    +0.000 HD
ATOM     29  H   UNL     1       7.955  -3.237  -4.655  0.00  0.00    +0.000 HD
ATOM     30  H   UNL     1       7.738  -1.603  -4.000  0.00  0.00    +0.000 HD
ENDBRANCH  24  27
ENDBRANCH  21  24
ENDBRANCH  18  21
ENDBRANCH   1  18
TORSDOF 6
ENDMDL
MODEL 9
REMARK VINA RESULT:    -4.191     15.408     16.344
REMARK INTER + INTRA:          -6.436
REMARK INTER:                  -5.923
REMARK INTRA:                  -0.512
REMARK UNBOUND:                -0.897
REMARK  Name = 12813
REMARK  6 active torsions:
REMARK  status: ('A' for Active; 'I' for Inactive)
REMARK    1  A    between atoms: C_3  and  C_4
REMARK    2  A    between atoms: C_4  and  C_6
REMARK    3  A    between atoms: C_6  and  C_7
REMARK    4  A    between atoms: C_7  and  C_9
REMARK    5  A    between atoms: C_9  and  C_11
REMARK    6  A    between atoms: C_11  and  C_12
REMARK                            x       y       z     vdW  Elec       q    Type
REMARK                         _______ _______ _______ _____ _____    ______ ____
ROOT
ATOM      1  C   UNL     1       0.928  -6.530  15.080  0.00  0.00    +0.000 C 
ATOM      2  H   UNL     1      -0.010  -6.902  14.649  0.00  0.00    +0.000 HD
ATOM      3  H   UNL     1       0.759  -6.397  16.155  0.00  0.00    +0.000 HD
ENDROOT
BRANCH   1   4
ATOM      4  C   UNL     1       2.041  -7.550  14.846  0.00  0.00    +0.000 C 
ATOM      5  H   UNL     1       2.217  -8.125  15.764  0.00  0.00    +0.000 HD
ATOM      6  H   UNL     1       1.708  -8.256  14.074  0.00  0.00    +0.000 HD
BRANCH   4   9
ATOM      7  O   UNL     1       4.031  -7.728  13.489  0.00  0.00    +0.000 OA
ATOM      8  O   UNL     1       6.238  -8.100  12.985  0.00  0.00    +0.000 OA
ATOM      9  C   UNL     1       3.327  -6.879  14.405  0.00  0.00    +0.000 C 
ATOM     10  C   UNL     1       4.304  -6.656  15.537  0.00  0.00    +0.000 C 
ATOM     11  C   UNL     1       5.630  -6.634  14.814  0.00  0.00    +0.000 C 
ATOM     12  C   UNL     1       5.379  -7.573  13.673  0.00  0.00    +0.000 C 
ATOM     13  H   UNL     1       3.108  -5.936  13.887  0.00  0.00    +0.000 HD
ATOM     14  H   UNL     1       4.289  -7.497  16.240  0.00  0.00    +0.000 HD
ATOM     15  H   UNL     1       4.105  -5.740  16.102  0.00  0.00    +0.000 HD
ATOM     16  H   UNL     1       6.440  -6.995  15.452  0.00  0.00    +0.000 HD
ATOM     17  H   UNL     1       5.861  -5.641  14.417  0.00  0.00    +0.000 HD
ENDBRANCH   4   9
ENDBRANCH   1   4
BRANCH   1  18
ATOM     18  C   UNL     1       1.274  -5.175  14.456  0.00  0.00    +0.000 C 
ATOM     19  H   UNL     1       0.579  -4.956  13.637  0.00  0.00    +0.000 HD
ATOM     20  H   UNL     1       2.282  -5.214  14.025  0.00  0.00    +0.000 HD
BRANCH  18  21
ATOM     21  C   UNL     1       1.211  -4.054  15.496  0.00  0.00    +0.000 C 
ATOM     22  H   UNL     1       1.658  -4.404  16.435  0.00  0.00    +0.000 HD
ATOM     23  H   UNL     1       0.160  -3.824  15.714  0.00  0.00    +0.000 HD
BRANCH  21  24
ATOM     24  C   UNL     1       1.922  -2.774  15.053  0.00  0.00    +0.000 C 
ATOM     25  H   UNL     1       1.480  -2.420  14.114  0.00  0.00    +0.000 HD
ATOM     26  H   UNL     1       1.754  -1.989  15.801  0.00  0.00    +0.000 HD
BRANCH  24  27
ATOM     27  C   UNL     1       3.420  -2.950  14.855  0.00  0.00    +0.000 C 
ATOM     28  H   UNL     1       3.829  -3.613  15.624  0.00  0.00    +0.000 HD
ATOM     29  H   UNL     1       3.937  -1.989  14.922  0.00  0.00    +0.000 HD
ATOM     30  H   UNL     1       3.635  -3.389  13.876  0.00  0.00    +0.000 HD
ENDBRANCH  24  27
ENDBRANCH  21  24
ENDBRANCH  18  21
ENDBRANCH   1  18
TORSDOF 6
ENDMDL
MODEL 10
REMARK VINA RESULT:    -4.118      9.222     10.863
REMARK INTER + INTRA:          -6.339
REMARK INTER:                  -6.091
REMARK INTRA:                  -0.248
REMARK UNBOUND:                -0.897
REMARK  Name = 12813
REMARK  6 active torsions:
REMARK  status: ('A' for Active; 'I' for Inactive)
REMARK    1  A    between atoms: C_3  and  C_4
REMARK    2  A    between atoms: C_4  and  C_6
REMARK    3  A    between atoms: C_6  and  C_7
REMARK    4  A    between atoms: C_7  and  C_9
REMARK    5  A    between atoms: C_9  and  C_11
REMARK    6  A    between atoms: C_11  and  C_12
REMARK                            x       y       z     vdW  Elec       q    Type
REMARK                         _______ _______ _______ _____ _____    ______ ____
ROOT
ATOM      1  C   UNL     1       7.255 -11.936  -0.379  0.00  0.00    +0.000 C 
ATOM      2  H   UNL     1       6.874 -12.780  -0.967  0.00  0.00    +0.000 HD
ATOM      3  H   UNL     1       6.919 -11.018  -0.875  0.00  0.00    +0.000 HD
ENDROOT
BRANCH   1   4
ATOM      4  C   UNL     1       6.690 -12.002   1.040  0.00  0.00    +0.000 C 
ATOM      5  H   UNL     1       7.401 -12.515   1.699  0.00  0.00    +0.000 HD
ATOM      6  H   UNL     1       6.574 -10.977   1.414  0.00  0.00    +0.000 HD
BRANCH   4   9
ATOM      7  O   UNL     1       4.560 -12.212   2.157  0.00  0.00    +0.000 OA
ATOM      8  O   UNL     1       2.963 -13.095   3.549  0.00  0.00    +0.000 OA
ATOM      9  C   UNL     1       5.352 -12.713   1.072  0.00  0.00    +0.000 C 
ATOM     10  C   UNL     1       5.468 -14.196   1.346  0.00  0.00    +0.000 C 
ATOM     11  C   UNL     1       4.129 -14.512   1.968  0.00  0.00    +0.000 C 
ATOM     12  C   UNL     1       3.801 -13.229   2.672  0.00  0.00    +0.000 C 
ATOM     13  H   UNL     1       4.798 -12.531   0.142  0.00  0.00    +0.000 HD
ATOM     14  H   UNL     1       6.263 -14.399   2.074  0.00  0.00    +0.000 HD
ATOM     15  H   UNL     1       5.676 -14.783   0.447  0.00  0.00    +0.000 HD
ATOM     16  H   UNL     1       4.200 -15.343   2.674  0.00  0.00    +0.000 HD
ATOM     17  H   UNL     1       3.365 -14.711   1.211  0.00  0.00    +0.000 HD
ENDBRANCH   4   9
ENDBRANCH   1   4
BRANCH   1  18
ATOM     18  C   UNL     1       8.785 -11.968  -0.371  0.00  0.00    +0.000 C 
ATOM     19  H   UNL     1       9.137 -12.950  -0.710  0.00  0.00    +0.000 HD
ATOM     20  H   UNL     1       9.153 -11.828   0.653  0.00  0.00    +0.000 HD
BRANCH  18  21
ATOM     21  C   UNL     1       9.367 -10.876  -1.272  0.00  0.00    +0.000 C 
ATOM     22  H   UNL     1       8.908 -10.943  -2.266  0.00  0.00    +0.000 HD
ATOM     23  H   UNL     1      10.441 -11.055  -1.408  0.00  0.00    +0.000 HD
BRANCH  21  24
ATOM     24  C   UNL     1       9.161  -9.463  -0.723  0.00  0.00    +0.000 C 
ATOM     25  H   UNL     1       8.236  -9.044  -1.139  0.00  0.00    +0.000 HD
ATOM     26  H   UNL     1       9.027  -9.513   0.364  0.00  0.00    +0.000 HD
BRANCH  24  27
ATOM     27  C   UNL     1      10.311  -8.517  -1.033  0.00  0.00    +0.000 C 
ATOM     28  H   UNL     1      10.003  -7.480  -0.872  0.00  0.00    +0.000 HD
ATOM     29  H   UNL     1      10.632  -8.622  -2.073  0.00  0.00    +0.000 HD
ATOM     30  H   UNL     1      11.169  -8.722  -0.385  0.00  0.00    +0.000 HD
ENDBRANCH  24  27
ENDBRANCH  21  24
ENDBRANCH  18  21
ENDBRANCH   1  18
TORSDOF 6
ENDMDL
