MODEL 1
REMARK VINA RESULT:    -5.080      0.000      0.000
REMARK INTER + INTRA:          -7.110
REMARK INTER:                  -6.799
REMARK INTRA:                  -0.311
REMARK UNBOUND:                -0.249
REMARK  Name = 637566
REMARK  8 active torsions:
REMARK  status: ('A' for Active; 'I' for Inactive)
REMARK    1  A    between atoms: O_1  and  C_11
REMARK    2  A    between atoms: C_2  and  C_3
REMARK    3  A    between atoms: C_2  and  C_4
REMARK    4  A    between atoms: C_3  and  C_5
REMARK    5  A    between atoms: C_4  and  C_7
REMARK    6  A    between atoms: C_6  and  C_9
REMARK    7  A    between atoms: C_6  and  C_10
REMARK    8  A    between atoms: C_8  and  C_11
REMARK                            x       y       z     vdW  Elec       q    Type
REMARK                         _______ _______ _______ _____ _____    ______ ____
ROOT
ATOM      1  C   UNL     1       6.223 -13.060  -0.596  0.00  0.00    +0.000 C 
ATOM      2  H   UNL     1       6.203 -13.970   0.019  0.00  0.00    +0.000 HD
ATOM      3  H   UNL     1       6.317 -13.402  -1.636  0.00  0.00    +0.000 HD
ENDROOT
BRANCH   1   4
ATOM      4  C   UNL     1       4.899 -12.300  -0.438  0.00  0.00    +0.000 C 
ATOM      5  H   UNL     1       4.183 -12.632  -1.198  0.00  0.00    +0.000 HD
ATOM      6  H   UNL     1       5.053 -11.230  -0.628  0.00  0.00    +0.000 HD
BRANCH   4   7
ATOM      7  C   UNL     1       4.315 -12.435   0.941  0.00  0.00    +0.000 C 
ATOM      8  C   UNL     1       3.249 -11.796   1.458  0.00  0.00    +0.000 C 
ATOM      9  H   UNL     1       4.841 -13.148   1.575  0.00  0.00    +0.000 HD
BRANCH   8  10
ATOM     10  C   UNL     1       2.818 -12.060   2.876  0.00  0.00    +0.000 C 
ATOM     11  H   UNL     1       3.526 -11.609   3.579  0.00  0.00    +0.000 HD
ATOM     12  H   UNL     1       1.826 -11.647   3.094  0.00  0.00    +0.000 HD
ATOM     13  H   UNL     1       2.778 -13.137   3.065  0.00  0.00    +0.000 HD
ENDBRANCH   8  10
BRANCH   8  14
ATOM     14  C   UNL     1       2.390 -10.805   0.725  0.00  0.00    +0.000 C 
ATOM     15  H   UNL     1       2.106  -9.985   1.392  0.00  0.00    +0.000 HD
ATOM     16  H   UNL     1       2.884 -10.372  -0.148  0.00  0.00    +0.000 HD
ATOM     17  H   UNL     1       1.476 -11.291   0.368  0.00  0.00    +0.000 HD
ENDBRANCH   8  14
ENDBRANCH   4   7
ENDBRANCH   1   4
BRANCH   1  18
ATOM     18  C   UNL     1       7.443 -12.248  -0.218  0.00  0.00    +0.000 C 
ATOM     19  C   UNL     1       7.690 -10.991  -0.634  0.00  0.00    +0.000 C 
ATOM     20  H   UNL     1       6.954 -10.541  -1.299  0.00  0.00    +0.000 HD
BRANCH  18  21
ATOM     21  C   UNL     1       8.437 -12.959   0.664  0.00  0.00    +0.000 C 
ATOM     22  H   UNL     1       8.236 -14.036   0.667  0.00  0.00    +0.000 HD
ATOM     23  H   UNL     1       8.362 -12.594   1.694  0.00  0.00    +0.000 HD
ATOM     24  H   UNL     1       9.473 -12.845   0.336  0.00  0.00    +0.000 HD
ENDBRANCH  18  21
BRANCH  19  25
ATOM     25  C   UNL     1       8.881 -10.139  -0.331  0.00  0.00    +0.000 C 
ATOM     26  H   UNL     1       9.283  -9.693  -1.245  0.00  0.00    +0.000 HD
ATOM     27  H   UNL     1       9.672 -10.693   0.181  0.00  0.00    +0.000 HD
BRANCH  25  28
ATOM     28  O   UNL     1       8.478  -9.089   0.539  0.00  0.00    +0.000 OA
ATOM     29  H   UNL     1       9.282  -8.667   0.888  0.00  0.00    +0.000 HD
ENDBRANCH  25  28
ENDBRANCH  19  25
ENDBRANCH   1  18
TORSDOF 8
ENDMDL
MODEL 2
REMARK VINA RESULT:    -4.809     16.097     18.001
REMARK INTER + INTRA:          -6.745
REMARK INTER:                  -6.308
REMARK INTRA:                  -0.437
REMARK UNBOUND:                -0.249
REMARK  Name = 637566
REMARK  8 active torsions:
REMARK  status: ('A' for Active; 'I' for Inactive)
REMARK    1  A    between atoms: O_1  and  C_11
REMARK    2  A    between atoms: C_2  and  C_3
REMARK    3  A    between atoms: C_2  and  C_4
REMARK    4  A    between atoms: C_3  and  C_5
REMARK    5  A    between atoms: C_4  and  C_7
REMARK    6  A    between atoms: C_6  and  C_9
REMARK    7  A    between atoms: C_6  and  C_10
REMARK    8  A    between atoms: C_8  and  C_11
REMARK                            x       y       z     vdW  Elec       q    Type
REMARK                         _______ _______ _______ _____ _____    ______ ____
ROOT
ATOM      1  C   UNL     1      -0.218  -6.928  17.337  0.00  0.00    +0.000 C 
ATOM      2  H   UNL     1       0.449  -6.371  18.009  0.00  0.00    +0.000 HD
ATOM      3  H   UNL     1      -1.187  -6.980  17.851  0.00  0.00    +0.000 HD
ENDROOT
BRANCH   1   4
ATOM      4  C   UNL     1      -0.391  -6.156  16.022  0.00  0.00    +0.000 C 
ATOM      5  H   UNL     1      -1.454  -5.967  15.835  0.00  0.00    +0.000 HD
ATOM      6  H   UNL     1      -0.049  -6.767  15.177  0.00  0.00    +0.000 HD
BRANCH   4   7
ATOM      7  C   UNL     1       0.392  -4.873  15.997  0.00  0.00    +0.000 C 
ATOM      8  C   UNL     1       1.400  -4.530  15.173  0.00  0.00    +0.000 C 
ATOM      9  H   UNL     1       0.078  -4.149  16.749  0.00  0.00    +0.000 HD
BRANCH   8  10
ATOM     10  C   UNL     1       2.073  -3.190  15.309  0.00  0.00    +0.000 C 
ATOM     11  H   UNL     1       2.949  -3.136  14.655  0.00  0.00    +0.000 HD
ATOM     12  H   UNL     1       1.408  -2.360  15.042  0.00  0.00    +0.000 HD
ATOM     13  H   UNL     1       2.399  -3.034  16.342  0.00  0.00    +0.000 HD
ENDBRANCH   8  10
BRANCH   8  14
ATOM     14  C   UNL     1       1.944  -5.384  14.063  0.00  0.00    +0.000 C 
ATOM     15  H   UNL     1       1.181  -5.532  13.292  0.00  0.00    +0.000 HD
ATOM     16  H   UNL     1       2.826  -4.953  13.583  0.00  0.00    +0.000 HD
ATOM     17  H   UNL     1       2.237  -6.365  14.451  0.00  0.00    +0.000 HD
ENDBRANCH   8  14
ENDBRANCH   4   7
ENDBRANCH   1   4
BRANCH   1  18
ATOM     18  C   UNL     1       0.336  -8.326  17.157  0.00  0.00    +0.000 C 
ATOM     19  C   UNL     1      -0.177  -9.435  17.724  0.00  0.00    +0.000 C 
ATOM     20  H   UNL     1      -1.047  -9.301  18.365  0.00  0.00    +0.000 HD
BRANCH  18  21
ATOM     21  C   UNL     1       1.570  -8.420  16.297  0.00  0.00    +0.000 C 
ATOM     22  H   UNL     1       1.759  -9.464  16.022  0.00  0.00    +0.000 HD
ATOM     23  H   UNL     1       2.443  -8.045  16.841  0.00  0.00    +0.000 HD
ATOM     24  H   UNL     1       1.491  -7.869  15.357  0.00  0.00    +0.000 HD
ENDBRANCH  18  21
BRANCH  19  25
ATOM     25  C   UNL     1       0.329 -10.838  17.620  0.00  0.00    +0.000 C 
ATOM     26  H   UNL     1       0.613 -11.224  18.603  0.00  0.00    +0.000 HD
ATOM     27  H   UNL     1       1.178 -10.928  16.937  0.00  0.00    +0.000 HD
BRANCH  25  28
ATOM     28  O   UNL     1      -0.710 -11.657  17.101  0.00  0.00    +0.000 OA
ATOM     29  H   UNL     1      -0.676 -11.603  16.130  0.00  0.00    +0.000 HD
ENDBRANCH  25  28
ENDBRANCH  19  25
ENDBRANCH   1  18
TORSDOF 8
ENDMDL
MODEL 3
REMARK VINA RESULT:    -4.783     13.279     14.919
REMARK INTER + INTRA:          -6.709
REMARK INTER:                  -6.130
REMARK INTRA:                  -0.579
REMARK UNBOUND:                -0.249
REMARK  Name = 637566
REMARK  8 active torsions:
REMARK  status: ('A' for Active; 'I' for Inactive)
REMARK    1  A    between atoms: O_1  and  C_11
REMARK    2  A    between atoms: C_2  and  C_3
REMARK    3  A    between atoms: C_2  and  C_4
REMARK    4  A    between atoms: C_3  and  C_5
REMARK    5  A    between atoms: C_4  and  C_7
REMARK    6  A    between atoms: C_6  and  C_9
REMARK    7  A    between atoms: C_6  and  C_10
REMARK    8  A    between atoms: C_8  and  C_11
REMARK                            x       y       z     vdW  Elec       q    Type
REMARK                         _______ _______ _______ _____ _____    ______ ____
ROOT
ATOM      1  C   UNL     1      -2.680  -7.918  -9.264  0.00  0.00    +0.000 C 
ATOM      2  H   UNL     1      -1.774  -8.102  -9.856  0.00  0.00    +0.000 HD
ATOM      3  H   UNL     1      -2.331  -7.629  -8.263  0.00  0.00    +0.000 HD
ENDROOT
BRANCH   1   4
ATOM      4  C   UNL     1      -3.472  -6.753  -9.873  0.00  0.00    +0.000 C 
ATOM      5  H   UNL     1      -3.765  -6.996 -10.900  0.00  0.00    +0.000 HD
ATOM      6  H   UNL     1      -2.834  -5.864  -9.953  0.00  0.00    +0.000 HD
BRANCH   4   7
ATOM      7  C   UNL     1      -4.672  -6.376  -9.049  0.00  0.00    +0.000 C 
ATOM      8  C   UNL     1      -5.963  -6.341  -9.429  0.00  0.00    +0.000 C 
ATOM      9  H   UNL     1      -4.435  -6.105  -8.021  0.00  0.00    +0.000 HD
BRANCH   8  10
ATOM     10  C   UNL     1      -7.032  -5.925  -8.455  0.00  0.00    +0.000 C 
ATOM     11  H   UNL     1      -7.883  -6.613  -8.507  0.00  0.00    +0.000 HD
ATOM     12  H   UNL     1      -6.674  -5.919  -7.419  0.00  0.00    +0.000 HD
ATOM     13  H   UNL     1      -7.386  -4.916  -8.689  0.00  0.00    +0.000 HD
ENDBRANCH   8  10
BRANCH   8  14
ATOM     14  C   UNL     1      -6.478  -6.707 -10.792  0.00  0.00    +0.000 C 
ATOM     15  H   UNL     1      -6.420  -7.791 -10.939  0.00  0.00    +0.000 HD
ATOM     16  H   UNL     1      -7.515  -6.402 -10.955  0.00  0.00    +0.000 HD
ATOM     17  H   UNL     1      -5.875  -6.222 -11.566  0.00  0.00    +0.000 HD
ENDBRANCH   8  14
ENDBRANCH   4   7
ENDBRANCH   1   4
BRANCH   1  18
ATOM     18  C   UNL     1      -3.467  -9.209  -9.172  0.00  0.00    +0.000 C 
ATOM     19  C   UNL     1      -3.819  -9.815  -8.021  0.00  0.00    +0.000 C 
ATOM     20  H   UNL     1      -3.499  -9.337  -7.097  0.00  0.00    +0.000 HD
BRANCH  18  21
ATOM     21  C   UNL     1      -3.828  -9.835 -10.495  0.00  0.00    +0.000 C 
ATOM     22  H   UNL     1      -3.470 -10.870 -10.532  0.00  0.00    +0.000 HD
ATOM     23  H   UNL     1      -3.362  -9.281 -11.317  0.00  0.00    +0.000 HD
ATOM     24  H   UNL     1      -4.904  -9.879 -10.679  0.00  0.00    +0.000 HD
ENDBRANCH  18  21
BRANCH  19  25
ATOM     25  C   UNL     1      -4.564 -11.101  -7.850  0.00  0.00    +0.000 C 
ATOM     26  H   UNL     1      -4.454 -11.735  -8.734  0.00  0.00    +0.000 HD
ATOM     27  H   UNL     1      -5.626 -10.945  -7.645  0.00  0.00    +0.000 HD
BRANCH  25  28
ATOM     28  O   UNL     1      -4.021 -11.793  -6.734  0.00  0.00    +0.000 OA
ATOM     29  H   UNL     1      -4.442 -12.669  -6.694  0.00  0.00    +0.000 HD
ENDBRANCH  25  28
ENDBRANCH  19  25
ENDBRANCH   1  18
TORSDOF 8
ENDMDL
MODEL 4
REMARK VINA RESULT:    -4.754      2.205      5.183
REMARK INTER + INTRA:          -6.671
REMARK INTER:                  -6.187
REMARK INTRA:                  -0.484
REMARK UNBOUND:                -0.249
REMARK  Name = 637566
REMARK  8 active torsions:
REMARK  status: ('A' for Active; 'I' for Inactive)
REMARK    1  A    between atoms: O_1  and  C_11
REMARK    2  A    between atoms: C_2  and  C_3
REMARK    3  A    between atoms: C_2  and  C_4
REMARK    4  A    between atoms: C_3  and  C_5
REMARK    5  A    between atoms: C_4  and  C_7
REMARK    6  A    between atoms: C_6  and  C_9
REMARK    7  A    between atoms: C_6  and  C_10
REMARK    8  A    between atoms: C_8  and  C_11
REMARK                            x       y       z     vdW  Elec       q    Type
REMARK                         _______ _______ _______ _____ _____    ______ ____
ROOT
ATOM      1  C   UNL     1       6.144 -13.183  -1.331  0.00  0.00    +0.000 C 
ATOM      2  H   UNL     1       6.246 -12.398  -2.093  0.00  0.00    +0.000 HD
ATOM      3  H   UNL     1       5.802 -14.079  -1.866  0.00  0.00    +0.000 HD
ENDROOT
BRANCH   1   4
ATOM      4  C   UNL     1       7.511 -13.471  -0.697  0.00  0.00    +0.000 C 
ATOM      5  H   UNL     1       7.749 -14.536  -0.788  0.00  0.00    +0.000 HD
ATOM      6  H   UNL     1       7.479 -13.268   0.380  0.00  0.00    +0.000 HD
BRANCH   4   7
ATOM      7  C   UNL     1       8.609 -12.627  -1.283  0.00  0.00    +0.000 C 
ATOM      8  C   UNL     1       8.901 -11.340  -1.017  0.00  0.00    +0.000 C 
ATOM      9  H   UNL     1       9.231 -13.152  -2.008  0.00  0.00    +0.000 HD
BRANCH   8  10
ATOM     10  C   UNL     1      10.045 -10.657  -1.718  0.00  0.00    +0.000 C 
ATOM     11  H   UNL     1       9.829  -9.592  -1.849  0.00  0.00    +0.000 HD
ATOM     12  H   UNL     1      10.984 -10.739  -1.160  0.00  0.00    +0.000 HD
ATOM     13  H   UNL     1      10.205 -11.104  -2.704  0.00  0.00    +0.000 HD
ENDBRANCH   8  10
BRANCH   8  14
ATOM     14  C   UNL     1       8.174 -10.471  -0.030  0.00  0.00    +0.000 C 
ATOM     15  H   UNL     1       7.284 -10.033  -0.495  0.00  0.00    +0.000 HD
ATOM     16  H   UNL     1       7.853 -11.012   0.863  0.00  0.00    +0.000 HD
ATOM     17  H   UNL     1       8.824  -9.656   0.305  0.00  0.00    +0.000 HD
ENDBRANCH   8  14
ENDBRANCH   4   7
ENDBRANCH   1   4
BRANCH   1  18
ATOM     18  C   UNL     1       5.087 -12.755  -0.335  0.00  0.00    +0.000 C 
ATOM     19  C   UNL     1       4.902 -13.311   0.878  0.00  0.00    +0.000 C 
ATOM     20  H   UNL     1       5.562 -14.136   1.145  0.00  0.00    +0.000 HD
BRANCH  18  21
ATOM     21  C   UNL     1       4.182 -11.642  -0.799  0.00  0.00    +0.000 C 
ATOM     22  H   UNL     1       4.604 -11.160  -1.688  0.00  0.00    +0.000 HD
ATOM     23  H   UNL     1       4.077 -10.885  -0.016  0.00  0.00    +0.000 HD
ATOM     24  H   UNL     1       3.183 -11.980  -1.084  0.00  0.00    +0.000 HD
ENDBRANCH  18  21
BRANCH  19  25
ATOM     25  C   UNL     1       3.866 -12.967   1.899  0.00  0.00    +0.000 C 
ATOM     26  H   UNL     1       3.242 -13.835   2.129  0.00  0.00    +0.000 HD
ATOM     27  H   UNL     1       3.229 -12.136   1.586  0.00  0.00    +0.000 HD
BRANCH  25  28
ATOM     28  O   UNL     1       4.523 -12.561   3.093  0.00  0.00    +0.000 OA
ATOM     29  H   UNL     1       5.460 -12.409   2.879  0.00  0.00    +0.000 HD
ENDBRANCH  25  28
ENDBRANCH  19  25
ENDBRANCH   1  18
TORSDOF 8
ENDMDL
MODEL 5
REMARK VINA RESULT:    -4.650     16.646     17.711
REMARK INTER + INTRA:          -6.530
REMARK INTER:                  -6.281
REMARK INTRA:                  -0.249
REMARK UNBOUND:                -0.249
REMARK  Name = 637566
REMARK  8 active torsions:
REMARK  status: ('A' for Active; 'I' for Inactive)
REMARK    1  A    between atoms: O_1  and  C_11
REMARK    2  A    between atoms: C_2  and  C_3
REMARK    3  A    between atoms: C_2  and  C_4
REMARK    4  A    between atoms: C_3  and  C_5
REMARK    5  A    between atoms: C_4  and  C_7
REMARK    6  A    between atoms: C_6  and  C_9
REMARK    7  A    between atoms: C_6  and  C_10
REMARK    8  A    between atoms: C_8  and  C_11
REMARK                            x       y       z     vdW  Elec       q    Type
REMARK                         _______ _______ _______ _____ _____    ______ ____
ROOT
ATOM      1  C   UNL     1       2.118  -5.912  16.682  0.00  0.00    +0.000 C 
ATOM      2  H   UNL     1       2.366  -5.707  17.732  0.00  0.00    +0.000 HD
ATOM      3  H   UNL     1       2.591  -6.874  16.443  0.00  0.00    +0.000 HD
ENDROOT
BRANCH   1   4
ATOM      4  C   UNL     1       0.597  -6.053  16.527  0.00  0.00    +0.000 C 
ATOM      5  H   UNL     1       0.268  -5.560  15.605  0.00  0.00    +0.000 HD
ATOM      6  H   UNL     1       0.084  -5.525  17.341  0.00  0.00    +0.000 HD
BRANCH   4   7
ATOM      7  C   UNL     1       0.142  -7.485  16.559  0.00  0.00    +0.000 C 
ATOM      8  C   UNL     1      -0.101  -8.256  17.636  0.00  0.00    +0.000 C 
ATOM      9  H   UNL     1      -0.002  -7.925  15.573  0.00  0.00    +0.000 HD
BRANCH   8  10
ATOM     10  C   UNL     1      -0.545  -9.684  17.465  0.00  0.00    +0.000 C 
ATOM     11  H   UNL     1      -1.497  -9.851  17.980  0.00  0.00    +0.000 HD
ATOM     12  H   UNL     1      -0.687  -9.954  16.412  0.00  0.00    +0.000 HD
ATOM     13  H   UNL     1       0.202 -10.366  17.884  0.00  0.00    +0.000 HD
ENDBRANCH   8  10
BRANCH   8  14
ATOM     14  C   UNL     1       0.016  -7.813  19.066  0.00  0.00    +0.000 C 
ATOM     15  H   UNL     1      -0.290  -8.622  19.738  0.00  0.00    +0.000 HD
ATOM     16  H   UNL     1       1.031  -7.515  19.341  0.00  0.00    +0.000 HD
ATOM     17  H   UNL     1      -0.632  -6.950  19.248  0.00  0.00    +0.000 HD
ENDBRANCH   8  14
ENDBRANCH   4   7
ENDBRANCH   1   4
BRANCH   1  18
ATOM     18  C   UNL     1       2.721  -4.823  15.821  0.00  0.00    +0.000 C 
ATOM     19  C   UNL     1       2.107  -3.669  15.497  0.00  0.00    +0.000 C 
ATOM     20  H   UNL     1       1.098  -3.526  15.881  0.00  0.00    +0.000 HD
BRANCH  18  21
ATOM     21  C   UNL     1       4.100  -5.119  15.287  0.00  0.00    +0.000 C 
ATOM     22  H   UNL     1       4.417  -6.121  15.597  0.00  0.00    +0.000 HD
ATOM     23  H   UNL     1       4.822  -4.395  15.677  0.00  0.00    +0.000 HD
ATOM     24  H   UNL     1       4.158  -5.107  14.196  0.00  0.00    +0.000 HD
ENDBRANCH  18  21
BRANCH  19  25
ATOM     25  C   UNL     1       2.622  -2.564  14.631  0.00  0.00    +0.000 C 
ATOM     26  H   UNL     1       3.036  -2.961  13.699  0.00  0.00    +0.000 HD
ATOM     27  H   UNL     1       3.379  -1.957  15.133  0.00  0.00    +0.000 HD
BRANCH  25  28
ATOM     28  O   UNL     1       1.541  -1.700  14.307  0.00  0.00    +0.000 OA
ATOM     29  H   UNL     1       1.766  -1.238  13.481  0.00  0.00    +0.000 HD
ENDBRANCH  25  28
ENDBRANCH  19  25
ENDBRANCH   1  18
TORSDOF 8
ENDMDL
MODEL 6
REMARK VINA RESULT:    -4.578     16.745     18.088
REMARK INTER + INTRA:          -6.432
REMARK INTER:                  -5.938
REMARK INTRA:                  -0.495
REMARK UNBOUND:                -0.249
REMARK  Name = 637566
REMARK  8 active torsions:
REMARK  status: ('A' for Active; 'I' for Inactive)
REMARK    1  A    between atoms: O_1  and  C_11
REMARK    2  A    between atoms: C_2  and  C_3
REMARK    3  A    between atoms: C_2  and  C_4
REMARK    4  A    between atoms: C_3  and  C_5
REMARK    5  A    between atoms: C_4  and  C_7
REMARK    6  A    between atoms: C_6  and  C_9
REMARK    7  A    between atoms: C_6  and  C_10
REMARK    8  A    between atoms: C_8  and  C_11
REMARK                            x       y       z     vdW  Elec       q    Type
REMARK                         _______ _______ _______ _____ _____    ______ ____
ROOT
ATOM      1  C   UNL     1      -0.442  -6.289  16.761  0.00  0.00    +0.000 C 
ATOM      2  H   UNL     1      -0.451  -5.475  17.497  0.00  0.00    +0.000 HD
ATOM      3  H   UNL     1      -1.496  -6.527  16.563  0.00  0.00    +0.000 HD
ENDROOT
BRANCH   1   4
ATOM      4  C   UNL     1       0.212  -5.806  15.460  0.00  0.00    +0.000 C 
ATOM      5  H   UNL     1      -0.544  -5.712  14.673  0.00  0.00    +0.000 HD
ATOM      6  H   UNL     1       0.925  -6.555  15.094  0.00  0.00    +0.000 HD
BRANCH   4   7
ATOM      7  C   UNL     1       0.964  -4.516  15.636  0.00  0.00    +0.000 C 
ATOM      8  C   UNL     1       2.294  -4.315  15.587  0.00  0.00    +0.000 C 
ATOM      9  H   UNL     1       0.324  -3.653  15.821  0.00  0.00    +0.000 HD
BRANCH   8  10
ATOM     10  C   UNL     1       2.865  -2.938  15.799  0.00  0.00    +0.000 C 
ATOM     11  H   UNL     1       3.298  -2.559  14.867  0.00  0.00    +0.000 HD
ATOM     12  H   UNL     1       2.108  -2.219  16.129  0.00  0.00    +0.000 HD
ATOM     13  H   UNL     1       3.650  -2.967  16.561  0.00  0.00    +0.000 HD
ENDBRANCH   8  10
BRANCH   8  14
ATOM     14  C   UNL     1       3.323  -5.376  15.315  0.00  0.00    +0.000 C 
ATOM     15  H   UNL     1       3.311  -6.127  16.112  0.00  0.00    +0.000 HD
ATOM     16  H   UNL     1       3.166  -5.892  14.365  0.00  0.00    +0.000 HD
ATOM     17  H   UNL     1       4.323  -4.930  15.277  0.00  0.00    +0.000 HD
ENDBRANCH   8  14
ENDBRANCH   4   7
ENDBRANCH   1   4
BRANCH   1  18
ATOM     18  C   UNL     1       0.240  -7.492  17.378  0.00  0.00    +0.000 C 
ATOM     19  C   UNL     1       1.127  -8.283  16.744  0.00  0.00    +0.000 C 
ATOM     20  H   UNL     1       1.353  -8.034  15.708  0.00  0.00    +0.000 HD
BRANCH  18  21
ATOM     21  C   UNL     1      -0.164  -7.799  18.798  0.00  0.00    +0.000 C 
ATOM     22  H   UNL     1      -1.137  -8.302  18.812  0.00  0.00    +0.000 HD
ATOM     23  H   UNL     1      -0.247  -6.874  19.378  0.00  0.00    +0.000 HD
ATOM     24  H   UNL     1       0.529  -8.466  19.315  0.00  0.00    +0.000 HD
ENDBRANCH  18  21
BRANCH  19  25
ATOM     25  C   UNL     1       1.817  -9.500  17.273  0.00  0.00    +0.000 C 
ATOM     26  H   UNL     1       1.934 -10.253  16.489  0.00  0.00    +0.000 HD
ATOM     27  H   UNL     1       1.292  -9.941  18.124  0.00  0.00    +0.000 HD
BRANCH  25  28
ATOM     28  O   UNL     1       3.109  -9.125  17.730  0.00  0.00    +0.000 OA
ATOM     29  H   UNL     1       3.430  -8.405  17.160  0.00  0.00    +0.000 HD
ENDBRANCH  25  28
ENDBRANCH  19  25
ENDBRANCH   1  18
TORSDOF 8
ENDMDL
MODEL 7
REMARK VINA RESULT:    -4.561      5.540      7.849
REMARK INTER + INTRA:          -6.410
REMARK INTER:                  -6.172
REMARK INTRA:                  -0.239
REMARK UNBOUND:                -0.249
REMARK  Name = 637566
REMARK  8 active torsions:
REMARK  status: ('A' for Active; 'I' for Inactive)
REMARK    1  A    between atoms: O_1  and  C_11
REMARK    2  A    between atoms: C_2  and  C_3
REMARK    3  A    between atoms: C_2  and  C_4
REMARK    4  A    between atoms: C_3  and  C_5
REMARK    5  A    between atoms: C_4  and  C_7
REMARK    6  A    between atoms: C_6  and  C_9
REMARK    7  A    between atoms: C_6  and  C_10
REMARK    8  A    between atoms: C_8  and  C_11
REMARK                            x       y       z     vdW  Elec       q    Type
REMARK                         _______ _______ _______ _____ _____    ______ ____
ROOT
ATOM      1  C   UNL     1      12.933 -10.009  -3.141  0.00  0.00    +0.000 C 
ATOM      2  H   UNL     1      13.841  -9.876  -2.538  0.00  0.00    +0.000 HD
ATOM      3  H   UNL     1      12.793 -11.094  -3.238  0.00  0.00    +0.000 HD
ENDROOT
BRANCH   1   4
ATOM      4  C   UNL     1      11.727  -9.414  -2.401  0.00  0.00    +0.000 C 
ATOM      5  H   UNL     1      11.227  -8.674  -3.035  0.00  0.00    +0.000 HD
ATOM      6  H   UNL     1      12.062  -8.863  -1.514  0.00  0.00    +0.000 HD
BRANCH   4   7
ATOM      7  C   UNL     1      10.756 -10.466  -1.940  0.00  0.00    +0.000 C 
ATOM      8  C   UNL     1       9.632 -10.300  -1.218  0.00  0.00    +0.000 C 
ATOM      9  H   UNL     1      11.021 -11.477  -2.247  0.00  0.00    +0.000 HD
BRANCH   8  10
ATOM     10  C   UNL     1       8.786 -11.487  -0.843  0.00  0.00    +0.000 C 
ATOM     11  H   UNL     1       7.807 -11.156  -0.478  0.00  0.00    +0.000 HD
ATOM     12  H   UNL     1       8.613 -12.161  -1.689  0.00  0.00    +0.000 HD
ATOM     13  H   UNL     1       9.274 -12.064  -0.052  0.00  0.00    +0.000 HD
ENDBRANCH   8  10
BRANCH   8  14
ATOM     14  C   UNL     1       9.096  -8.982  -0.735  0.00  0.00    +0.000 C 
ATOM     15  H   UNL     1       9.839  -8.480  -0.106  0.00  0.00    +0.000 HD
ATOM     16  H   UNL     1       8.832  -8.302  -1.549  0.00  0.00    +0.000 HD
ATOM     17  H   UNL     1       8.190  -9.138  -0.141  0.00  0.00    +0.000 HD
ENDBRANCH   8  14
ENDBRANCH   4   7
ENDBRANCH   1   4
BRANCH   1  18
ATOM     18  C   UNL     1      13.169  -9.404  -4.509  0.00  0.00    +0.000 C 
ATOM     19  C   UNL     1      14.366  -8.995  -4.973  0.00  0.00    +0.000 C 
ATOM     20  H   UNL     1      15.216  -9.104  -4.301  0.00  0.00    +0.000 HD
BRANCH  18  21
ATOM     21  C   UNL     1      11.935  -9.241  -5.359  0.00  0.00    +0.000 C 
ATOM     22  H   UNL     1      12.170  -9.452  -6.409  0.00  0.00    +0.000 HD
ATOM     23  H   UNL     1      11.559  -8.215  -5.291  0.00  0.00    +0.000 HD
ATOM     24  H   UNL     1      11.124  -9.921  -5.088  0.00  0.00    +0.000 HD
ENDBRANCH  18  21
BRANCH  19  25
ATOM     25  C   UNL     1      14.673  -8.362  -6.293  0.00  0.00    +0.000 C 
ATOM     26  H   UNL     1      13.767  -8.268  -6.899  0.00  0.00    +0.000 HD
ATOM     27  H   UNL     1      15.429  -8.914  -6.856  0.00  0.00    +0.000 HD
BRANCH  25  28
ATOM     28  O   UNL     1      15.193  -7.060  -6.061  0.00  0.00    +0.000 OA
ATOM     29  H   UNL     1      15.592  -6.747  -6.891  0.00  0.00    +0.000 HD
ENDBRANCH  25  28
ENDBRANCH  19  25
ENDBRANCH   1  18
TORSDOF 8
ENDMDL
MODEL 8
REMARK VINA RESULT:    -4.542     23.697     24.625
REMARK INTER + INTRA:          -6.384
REMARK INTER:                  -6.142
REMARK INTRA:                  -0.242
REMARK UNBOUND:                -0.249
REMARK  Name = 637566
REMARK  8 active torsions:
REMARK  status: ('A' for Active; 'I' for Inactive)
REMARK    1  A    between atoms: O_1  and  C_11
REMARK    2  A    between atoms: C_2  and  C_3
REMARK    3  A    between atoms: C_2  and  C_4
REMARK    4  A    between atoms: C_3  and  C_5
REMARK    5  A    between atoms: C_4  and  C_7
REMARK    6  A    between atoms: C_6  and  C_9
REMARK    7  A    between atoms: C_6  and  C_10
REMARK    8  A    between atoms: C_8  and  C_11
REMARK                            x       y       z     vdW  Elec       q    Type
REMARK                         _______ _______ _______ _____ _____    ______ ____
ROOT
ATOM      1  C   UNL     1       6.866  13.185  -2.105  0.00  0.00    +0.000 C 
ATOM      2  H   UNL     1       5.927  12.645  -2.284  0.00  0.00    +0.000 HD
ATOM      3  H   UNL     1       6.603  14.252  -2.103  0.00  0.00    +0.000 HD
ENDROOT
BRANCH   1   4
ATOM      4  C   UNL     1       7.425  12.808  -0.727  0.00  0.00    +0.000 C 
ATOM      5  H   UNL     1       7.876  13.686  -0.252  0.00  0.00    +0.000 HD
ATOM      6  H   UNL     1       8.241  12.083  -0.835  0.00  0.00    +0.000 HD
BRANCH   4   7
ATOM      7  C   UNL     1       6.388  12.190   0.170  0.00  0.00    +0.000 C 
ATOM      8  C   UNL     1       6.102  12.501   1.448  0.00  0.00    +0.000 C 
ATOM      9  H   UNL     1       5.811  11.396  -0.305  0.00  0.00    +0.000 HD
BRANCH   8  10
ATOM     10  C   UNL     1       5.024  11.756   2.189  0.00  0.00    +0.000 C 
ATOM     11  H   UNL     1       5.046  12.016   3.253  0.00  0.00    +0.000 HD
ATOM     12  H   UNL     1       4.022  11.988   1.813  0.00  0.00    +0.000 HD
ATOM     13  H   UNL     1       5.174  10.677   2.091  0.00  0.00    +0.000 HD
ENDBRANCH   8  10
BRANCH   8  14
ATOM     14  C   UNL     1       6.771  13.580   2.250  0.00  0.00    +0.000 C 
ATOM     15  H   UNL     1       6.784  13.310   3.311  0.00  0.00    +0.000 HD
ATOM     16  H   UNL     1       7.802  13.768   1.940  0.00  0.00    +0.000 HD
ATOM     17  H   UNL     1       6.226  14.524   2.141  0.00  0.00    +0.000 HD
ENDBRANCH   8  14
ENDBRANCH   4   7
ENDBRANCH   1   4
BRANCH   1  18
ATOM     18  C   UNL     1       7.815  12.899  -3.249  0.00  0.00    +0.000 C 
ATOM     19  C   UNL     1       7.673  13.370  -4.503  0.00  0.00    +0.000 C 
ATOM     20  H   UNL     1       6.801  13.993  -4.697  0.00  0.00    +0.000 HD
BRANCH  18  21
ATOM     21  C   UNL     1       8.967  11.987  -2.912  0.00  0.00    +0.000 C 
ATOM     22  H   UNL     1       9.530  11.740  -3.820  0.00  0.00    +0.000 HD
ATOM     23  H   UNL     1       8.599  11.055  -2.472  0.00  0.00    +0.000 HD
ATOM     24  H   UNL     1       9.688  12.431  -2.221  0.00  0.00    +0.000 HD
ENDBRANCH  18  21
BRANCH  19  25
ATOM     25  C   UNL     1       8.545  13.107  -5.688  0.00  0.00    +0.000 C 
ATOM     26  H   UNL     1       9.585  12.959  -5.382  0.00  0.00    +0.000 HD
ATOM     27  H   UNL     1       8.497  13.908  -6.430  0.00  0.00    +0.000 HD
BRANCH  25  28
ATOM     28  O   UNL     1       8.096  11.920  -6.328  0.00  0.00    +0.000 OA
ATOM     29  H   UNL     1       8.868  11.488  -6.732  0.00  0.00    +0.000 HD
ENDBRANCH  25  28
ENDBRANCH  19  25
ENDBRANCH   1  18
TORSDOF 8
ENDMDL
MODEL 9
REMARK VINA RESULT:    -4.506      2.769      6.099
REMARK INTER + INTRA:          -6.335
REMARK INTER:                  -6.024
REMARK INTRA:                  -0.311
REMARK UNBOUND:                -0.249
REMARK  Name = 637566
REMARK  8 active torsions:
REMARK  status: ('A' for Active; 'I' for Inactive)
REMARK    1  A    between atoms: O_1  and  C_11
REMARK    2  A    between atoms: C_2  and  C_3
REMARK    3  A    between atoms: C_2  and  C_4
REMARK    4  A    between atoms: C_3  and  C_5
REMARK    5  A    between atoms: C_4  and  C_7
REMARK    6  A    between atoms: C_6  and  C_9
REMARK    7  A    between atoms: C_6  and  C_10
REMARK    8  A    between atoms: C_8  and  C_11
REMARK                            x       y       z     vdW  Elec       q    Type
REMARK                         _______ _______ _______ _____ _____    ______ ____
ROOT
ATOM      1  C   UNL     1       7.754 -10.829  -0.659  0.00  0.00    +0.000 C 
ATOM      2  H   UNL     1       7.097  -9.996  -0.373  0.00  0.00    +0.000 HD
ATOM      3  H   UNL     1       7.842 -10.779  -1.753  0.00  0.00    +0.000 HD
ENDROOT
BRANCH   1   4
ATOM      4  C   UNL     1       9.143 -10.631  -0.037  0.00  0.00    +0.000 C 
ATOM      5  H   UNL     1       9.361 -11.448   0.659  0.00  0.00    +0.000 HD
ATOM      6  H   UNL     1       9.159  -9.717   0.570  0.00  0.00    +0.000 HD
BRANCH   4   7
ATOM      7  C   UNL     1      10.227 -10.506  -1.071  0.00  0.00    +0.000 C 
ATOM      8  C   UNL     1      10.757  -9.382  -1.589  0.00  0.00    +0.000 C 
ATOM      9  H   UNL     1      10.615 -11.462  -1.423  0.00  0.00    +0.000 HD
BRANCH   8  10
ATOM     10  C   UNL     1      11.840  -9.460  -2.631  0.00  0.00    +0.000 C 
ATOM     11  H   UNL     1      11.860 -10.457  -3.084  0.00  0.00    +0.000 HD
ATOM     12  H   UNL     1      11.696  -8.733  -3.438  0.00  0.00    +0.000 HD
ATOM     13  H   UNL     1      12.816  -9.263  -2.178  0.00  0.00    +0.000 HD
ENDBRANCH   8  10
BRANCH   8  14
ATOM     14  C   UNL     1      10.370  -7.982  -1.203  0.00  0.00    +0.000 C 
ATOM     15  H   UNL     1      10.996  -7.631  -0.376  0.00  0.00    +0.000 HD
ATOM     16  H   UNL     1      10.469  -7.268  -2.025  0.00  0.00    +0.000 HD
ATOM     17  H   UNL     1       9.324  -7.955  -0.880  0.00  0.00    +0.000 HD
ENDBRANCH   8  14
ENDBRANCH   4   7
ENDBRANCH   1   4
BRANCH   1  18
ATOM     18  C   UNL     1       7.087 -12.129  -0.263  0.00  0.00    +0.000 C 
ATOM     19  C   UNL     1       7.719 -13.181   0.292  0.00  0.00    +0.000 C 
ATOM     20  H   UNL     1       8.792 -13.078   0.454  0.00  0.00    +0.000 HD
BRANCH  18  21
ATOM     21  C   UNL     1       5.612 -12.210  -0.567  0.00  0.00    +0.000 C 
ATOM     22  H   UNL     1       5.361 -13.206  -0.949  0.00  0.00    +0.000 HD
ATOM     23  H   UNL     1       5.339 -11.472  -1.327  0.00  0.00    +0.000 HD
ATOM     24  H   UNL     1       4.977 -12.052   0.308  0.00  0.00    +0.000 HD
ENDBRANCH  18  21
BRANCH  19  25
ATOM     25  C   UNL     1       7.139 -14.503   0.680  0.00  0.00    +0.000 C 
ATOM     26  H   UNL     1       7.891 -15.294   0.608  0.00  0.00    +0.000 HD
ATOM     27  H   UNL     1       6.270 -14.772   0.074  0.00  0.00    +0.000 HD
BRANCH  25  28
ATOM     28  O   UNL     1       6.698 -14.427   2.029  0.00  0.00    +0.000 OA
ATOM     29  H   UNL     1       6.692 -13.489   2.288  0.00  0.00    +0.000 HD
ENDBRANCH  25  28
ENDBRANCH  19  25
ENDBRANCH   1  18
TORSDOF 8
ENDMDL
MODEL 10
REMARK VINA RESULT:    -4.480     13.487     15.321
REMARK INTER + INTRA:          -6.300
REMARK INTER:                  -5.750
REMARK INTRA:                  -0.550
REMARK UNBOUND:                -0.249
REMARK  Name = 637566
REMARK  8 active torsions:
REMARK  status: ('A' for Active; 'I' for Inactive)
REMARK    1  A    between atoms: O_1  and  C_11
REMARK    2  A    between atoms: C_2  and  C_3
REMARK    3  A    between atoms: C_2  and  C_4
REMARK    4  A    between atoms: C_3  and  C_5
REMARK    5  A    between atoms: C_4  and  C_7
REMARK    6  A    between atoms: C_6  and  C_9
REMARK    7  A    between atoms: C_6  and  C_10
REMARK    8  A    between atoms: C_8  and  C_11
REMARK                            x       y       z     vdW  Elec       q    Type
REMARK                         _______ _______ _______ _____ _____    ______ ____
ROOT
ATOM      1  C   UNL     1      -3.385  -6.645  -9.650  0.00  0.00    +0.000 C 
ATOM      2  H   UNL     1      -2.994  -6.193  -8.729  0.00  0.00    +0.000 HD
ATOM      3  H   UNL     1      -2.985  -6.039 -10.475  0.00  0.00    +0.000 HD
ENDROOT
BRANCH   1   4
ATOM      4  C   UNL     1      -2.860  -8.081  -9.787  0.00  0.00    +0.000 C 
ATOM      5  H   UNL     1      -1.769  -8.073  -9.888  0.00  0.00    +0.000 HD
ATOM      6  H   UNL     1      -3.237  -8.535 -10.711  0.00  0.00    +0.000 HD
BRANCH   4   7
ATOM      7  C   UNL     1      -3.284  -8.962  -8.645  0.00  0.00    +0.000 C 
ATOM      8  C   UNL     1      -3.925 -10.145  -8.701  0.00  0.00    +0.000 C 
ATOM      9  H   UNL     1      -3.024  -8.569  -7.662  0.00  0.00    +0.000 HD
BRANCH   8  10
ATOM     10  C   UNL     1      -4.275 -10.882  -7.436  0.00  0.00    +0.000 C 
ATOM     11  H   UNL     1      -3.507 -11.628  -7.205  0.00  0.00    +0.000 HD
ATOM     12  H   UNL     1      -4.358 -10.213  -6.572  0.00  0.00    +0.000 HD
ATOM     13  H   UNL     1      -5.235 -11.395  -7.551  0.00  0.00    +0.000 HD
ENDBRANCH   8  10
BRANCH   8  14
ATOM     14  C   UNL     1      -4.335 -10.852  -9.962  0.00  0.00    +0.000 C 
ATOM     15  H   UNL     1      -4.069 -11.913  -9.904  0.00  0.00    +0.000 HD
ATOM     16  H   UNL     1      -5.407 -10.786 -10.161  0.00  0.00    +0.000 HD
ATOM     17  H   UNL     1      -3.821 -10.414 -10.824  0.00  0.00    +0.000 HD
ENDBRANCH   8  14
ENDBRANCH   4   7
ENDBRANCH   1   4
BRANCH   1  18
ATOM     18  C   UNL     1      -4.896  -6.546  -9.634  0.00  0.00    +0.000 C 
ATOM     19  C   UNL     1      -5.627  -6.117  -8.587  0.00  0.00    +0.000 C 
ATOM     20  H   UNL     1      -5.080  -5.834  -7.689  0.00  0.00    +0.000 HD
BRANCH  18  21
ATOM     21  C   UNL     1      -5.581  -7.004 -10.896  0.00  0.00    +0.000 C 
ATOM     22  H   UNL     1      -6.256  -6.222 -11.263  0.00  0.00    +0.000 HD
ATOM     23  H   UNL     1      -6.172  -7.905 -10.703  0.00  0.00    +0.000 HD
ATOM     24  H   UNL     1      -4.891  -7.217 -11.716  0.00  0.00    +0.000 HD
ENDBRANCH  18  21
BRANCH  19  25
ATOM     25  C   UNL     1      -7.116  -6.021  -8.484  0.00  0.00    +0.000 C 
ATOM     26  H   UNL     1      -7.600  -6.709  -9.184  0.00  0.00    +0.000 HD
ATOM     27  H   UNL     1      -7.483  -5.007  -8.661  0.00  0.00    +0.000 HD
BRANCH  25  28
ATOM     28  O   UNL     1      -7.503  -6.380  -7.165  0.00  0.00    +0.000 OA
ATOM     29  H   UNL     1      -8.458  -6.567  -7.175  0.00  0.00    +0.000 HD
ENDBRANCH  25  28
ENDBRANCH  19  25
ENDBRANCH   1  18
TORSDOF 8
ENDMDL
