MODEL 1
REMARK VINA RESULT:    -4.568      0.000      0.000
REMARK INTER + INTRA:          -5.152
REMARK INTER:                  -5.112
REMARK INTRA:                  -0.041
REMARK UNBOUND:                -0.050
REMARK  Name = 460
REMARK  3 active torsions:
REMARK  status: ('A' for Active; 'I' for Inactive)
REMARK    1  A    between atoms: O_1  and  C_3
REMARK    2  A    between atoms: O_1  and  C_9
REMARK    3  A    between atoms: O_2  and  C_4
REMARK                            x       y       z     vdW  Elec       q    Type
REMARK                         _______ _______ _______ _____ _____    ______ ____
ROOT
ATOM      1  C   UNL     1       1.666  -6.324  14.412  0.00  0.00    +0.000 A 
ATOM      2  C   UNL     1       1.478  -4.999  14.804  0.00  0.00    +0.000 A 
ATOM      3  C   UNL     1       0.949  -7.345  15.036  0.00  0.00    +0.000 A 
ATOM      4  C   UNL     1       0.573  -4.695  15.821  0.00  0.00    +0.000 A 
ATOM      5  C   UNL     1       0.044  -7.040  16.053  0.00  0.00    +0.000 A 
ATOM      6  C   UNL     1      -0.144  -5.715  16.446  0.00  0.00    +0.000 A 
ATOM      7  H   UNL     1       1.043  -8.395  14.784  0.00  0.00    +0.000 HD
ATOM      8  H   UNL     1       0.422  -3.664  16.131  0.00  0.00    +0.000 HD
ATOM      9  H   UNL     1      -0.515  -7.834  16.539  0.00  0.00    +0.000 HD
ATOM     10  H   UNL     1      -0.848  -5.478  17.237  0.00  0.00    +0.000 HD
ENDROOT
BRANCH   2  11
ATOM     11  O   UNL     1       2.172  -3.993  14.201  0.00  0.00    +0.000 OA
ATOM     12  H   UNL     1       2.356  -3.308  14.867  0.00  0.00    +0.000 HD
ENDBRANCH   2  11
BRANCH   1  13
ATOM     13  O   UNL     1       2.547  -6.634  13.419  0.00  0.00    +0.000 OA
BRANCH  13  14
ATOM     14  C   UNL     1       2.901  -8.008  13.273  0.00  0.00    +0.000 C 
ATOM     15  H   UNL     1       3.110  -8.262  12.228  0.00  0.00    +0.000 HD
ATOM     16  H   UNL     1       2.149  -8.669  13.720  0.00  0.00    +0.000 HD
ATOM     17  H   UNL     1       3.831  -8.163  13.830  0.00  0.00    +0.000 HD
ENDBRANCH  13  14
ENDBRANCH   1  13
TORSDOF 3
ENDMDL
MODEL 2
REMARK VINA RESULT:    -4.549      0.808      2.774
REMARK INTER + INTRA:          -5.132
REMARK INTER:                  -5.091
REMARK INTRA:                  -0.041
REMARK UNBOUND:                -0.050
REMARK  Name = 460
REMARK  3 active torsions:
REMARK  status: ('A' for Active; 'I' for Inactive)
REMARK    1  A    between atoms: O_1  and  C_3
REMARK    2  A    between atoms: O_1  and  C_9
REMARK    3  A    between atoms: O_2  and  C_4
REMARK                            x       y       z     vdW  Elec       q    Type
REMARK                         _______ _______ _______ _____ _____    ______ ____
ROOT
ATOM      1  C   UNL     1       1.605  -5.042  14.877  0.00  0.00    +0.000 A 
ATOM      2  C   UNL     1       1.712  -6.377  14.490  0.00  0.00    +0.000 A 
ATOM      3  C   UNL     1       0.654  -4.664  15.826  0.00  0.00    +0.000 A 
ATOM      4  C   UNL     1       0.867  -7.335  15.052  0.00  0.00    +0.000 A 
ATOM      5  C   UNL     1      -0.190  -5.622  16.386  0.00  0.00    +0.000 A 
ATOM      6  C   UNL     1      -0.084  -6.959  15.999  0.00  0.00    +0.000 A 
ATOM      7  H   UNL     1       0.514  -3.647  16.174  0.00  0.00    +0.000 HD
ATOM      8  H   UNL     1       0.946  -8.378  14.754  0.00  0.00    +0.000 HD
ATOM      9  H   UNL     1      -0.930  -5.330  17.125  0.00  0.00    +0.000 HD
ATOM     10  H   UNL     1      -0.741  -7.704  16.436  0.00  0.00    +0.000 HD
ENDROOT
BRANCH   2  11
ATOM     11  O   UNL     1       2.637  -6.758  13.566  0.00  0.00    +0.000 OA
ATOM     12  H   UNL     1       3.518  -6.701  13.975  0.00  0.00    +0.000 HD
ENDBRANCH   2  11
BRANCH   1  13
ATOM     13  O   UNL     1       2.424  -4.096  14.337  0.00  0.00    +0.000 OA
BRANCH  13  14
ATOM     14  C   UNL     1       2.274  -2.760  14.813  0.00  0.00    +0.000 C 
ATOM     15  H   UNL     1       2.530  -2.026  14.041  0.00  0.00    +0.000 HD
ATOM     16  H   UNL     1       2.830  -2.598  15.743  0.00  0.00    +0.000 HD
ATOM     17  H   UNL     1       1.213  -2.618  15.047  0.00  0.00    +0.000 HD
ENDBRANCH  13  14
ENDBRANCH   1  13
TORSDOF 3
ENDMDL
MODEL 3
REMARK VINA RESULT:    -4.513     14.137     15.390
REMARK INTER + INTRA:          -5.091
REMARK INTER:                  -5.037
REMARK INTRA:                  -0.053
REMARK UNBOUND:                -0.050
REMARK  Name = 460
REMARK  3 active torsions:
REMARK  status: ('A' for Active; 'I' for Inactive)
REMARK    1  A    between atoms: O_1  and  C_3
REMARK    2  A    between atoms: O_1  and  C_9
REMARK    3  A    between atoms: O_2  and  C_4
REMARK                            x       y       z     vdW  Elec       q    Type
REMARK                         _______ _______ _______ _____ _____    ______ ____
ROOT
ATOM      1  C   UNL     1       4.752 -12.750   1.161  0.00  0.00    +0.000 A 
ATOM      2  C   UNL     1       3.845 -12.445   2.175  0.00  0.00    +0.000 A 
ATOM      3  C   UNL     1       4.612 -12.167  -0.099  0.00  0.00    +0.000 A 
ATOM      4  C   UNL     1       2.798 -11.556   1.930  0.00  0.00    +0.000 A 
ATOM      5  C   UNL     1       3.565 -11.279  -0.344  0.00  0.00    +0.000 A 
ATOM      6  C   UNL     1       2.657 -10.973   0.671  0.00  0.00    +0.000 A 
ATOM      7  H   UNL     1       5.278 -12.357  -0.933  0.00  0.00    +0.000 HD
ATOM      8  H   UNL     1       2.087 -11.314   2.716  0.00  0.00    +0.000 HD
ATOM      9  H   UNL     1       3.455 -10.824  -1.324  0.00  0.00    +0.000 HD
ATOM     10  H   UNL     1       1.843 -10.282   0.479  0.00  0.00    +0.000 HD
ENDROOT
BRANCH   2  11
ATOM     11  O   UNL     1       3.971 -13.007   3.410  0.00  0.00    +0.000 OA
ATOM     12  H   UNL     1       3.357 -12.556   4.014  0.00  0.00    +0.000 HD
ENDBRANCH   2  11
BRANCH   1  13
ATOM     13  O   UNL     1       5.779 -13.616   1.388  0.00  0.00    +0.000 OA
BRANCH  13  14
ATOM     14  C   UNL     1       7.100 -13.081   1.344  0.00  0.00    +0.000 C 
ATOM     15  H   UNL     1       7.723 -13.604   0.611  0.00  0.00    +0.000 HD
ATOM     16  H   UNL     1       7.560 -13.055   2.338  0.00  0.00    +0.000 HD
ATOM     17  H   UNL     1       7.016 -12.043   1.005  0.00  0.00    +0.000 HD
ENDBRANCH  13  14
ENDBRANCH   1  13
TORSDOF 3
ENDMDL
MODEL 4
REMARK VINA RESULT:    -4.462     17.431     18.768
REMARK INTER + INTRA:          -5.034
REMARK INTER:                  -4.991
REMARK INTRA:                  -0.043
REMARK UNBOUND:                -0.050
REMARK  Name = 460
REMARK  3 active torsions:
REMARK  status: ('A' for Active; 'I' for Inactive)
REMARK    1  A    between atoms: O_1  and  C_3
REMARK    2  A    between atoms: O_1  and  C_9
REMARK    3  A    between atoms: O_2  and  C_4
REMARK                            x       y       z     vdW  Elec       q    Type
REMARK                         _______ _______ _______ _____ _____    ______ ____
ROOT
ATOM      1  C   UNL     1       9.460 -10.911  -1.444  0.00  0.00    +0.000 A 
ATOM      2  C   UNL     1       8.618 -10.026  -0.771  0.00  0.00    +0.000 A 
ATOM      3  C   UNL     1      10.698 -10.475  -1.915  0.00  0.00    +0.000 A 
ATOM      4  C   UNL     1       9.015  -8.704  -0.570  0.00  0.00    +0.000 A 
ATOM      5  C   UNL     1      11.094  -9.153  -1.713  0.00  0.00    +0.000 A 
ATOM      6  C   UNL     1      10.252  -8.267  -1.040  0.00  0.00    +0.000 A 
ATOM      7  H   UNL     1      11.403 -11.106  -2.445  0.00  0.00    +0.000 HD
ATOM      8  H   UNL     1       8.363  -8.009  -0.046  0.00  0.00    +0.000 HD
ATOM      9  H   UNL     1      12.058  -8.812  -2.079  0.00  0.00    +0.000 HD
ATOM     10  H   UNL     1      10.561  -7.238  -0.883  0.00  0.00    +0.000 HD
ENDROOT
BRANCH   2  11
ATOM     11  O   UNL     1       7.406 -10.441  -0.305  0.00  0.00    +0.000 OA
ATOM     12  H   UNL     1       7.009 -11.028  -0.971  0.00  0.00    +0.000 HD
ENDBRANCH   2  11
BRANCH   1  13
ATOM     13  O   UNL     1       9.084 -12.205  -1.647  0.00  0.00    +0.000 OA
BRANCH  13  14
ATOM     14  C   UNL     1       9.492 -12.814  -2.870  0.00  0.00    +0.000 C 
ATOM     15  H   UNL     1       8.874 -13.685  -3.114  0.00  0.00    +0.000 HD
ATOM     16  H   UNL     1      10.562 -13.051  -2.867  0.00  0.00    +0.000 HD
ATOM     17  H   UNL     1       9.332 -12.079  -3.666  0.00  0.00    +0.000 HD
ENDBRANCH  13  14
ENDBRANCH   1  13
TORSDOF 3
ENDMDL
MODEL 5
REMARK VINA RESULT:    -4.426     13.825     15.024
REMARK INTER + INTRA:          -4.994
REMARK INTER:                  -4.939
REMARK INTRA:                  -0.055
REMARK UNBOUND:                -0.050
REMARK  Name = 460
REMARK  3 active torsions:
REMARK  status: ('A' for Active; 'I' for Inactive)
REMARK    1  A    between atoms: O_1  and  C_3
REMARK    2  A    between atoms: O_1  and  C_9
REMARK    3  A    between atoms: O_2  and  C_4
REMARK                            x       y       z     vdW  Elec       q    Type
REMARK                         _______ _______ _______ _____ _____    ______ ____
ROOT
ATOM      1  C   UNL     1       4.260 -12.494   1.202  0.00  0.00    +0.000 A 
ATOM      2  C   UNL     1       3.228 -11.697   1.698  0.00  0.00    +0.000 A 
ATOM      3  C   UNL     1       4.528 -13.732   1.787  0.00  0.00    +0.000 A 
ATOM      4  C   UNL     1       2.465 -12.138   2.779  0.00  0.00    +0.000 A 
ATOM      5  C   UNL     1       3.764 -14.172   2.867  0.00  0.00    +0.000 A 
ATOM      6  C   UNL     1       2.732 -13.375   3.364  0.00  0.00    +0.000 A 
ATOM      7  H   UNL     1       5.312 -14.403   1.455  0.00  0.00    +0.000 HD
ATOM      8  H   UNL     1       1.659 -11.521   3.170  0.00  0.00    +0.000 HD
ATOM      9  H   UNL     1       3.971 -15.136   3.323  0.00  0.00    +0.000 HD
ATOM     10  H   UNL     1       2.138 -13.719   4.205  0.00  0.00    +0.000 HD
ENDROOT
BRANCH   2  11
ATOM     11  O   UNL     1       2.956 -10.487   1.135  0.00  0.00    +0.000 OA
ATOM     12  H   UNL     1       2.236 -10.604   0.493  0.00  0.00    +0.000 HD
ENDBRANCH   2  11
BRANCH   1  13
ATOM     13  O   UNL     1       5.013 -12.074   0.147  0.00  0.00    +0.000 OA
BRANCH  13  14
ATOM     14  C   UNL     1       4.749 -12.677  -1.118  0.00  0.00    +0.000 C 
ATOM     15  H   UNL     1       4.634 -11.926  -1.907  0.00  0.00    +0.000 HD
ATOM     16  H   UNL     1       3.895 -13.363  -1.069  0.00  0.00    +0.000 HD
ATOM     17  H   UNL     1       5.626 -13.279  -1.378  0.00  0.00    +0.000 HD
ENDBRANCH  13  14
ENDBRANCH   1  13
TORSDOF 3
ENDMDL
MODEL 6
REMARK VINA RESULT:    -4.114     21.118     21.863
REMARK INTER + INTRA:          -4.645
REMARK INTER:                  -4.604
REMARK INTRA:                  -0.041
REMARK UNBOUND:                -0.050
REMARK  Name = 460
REMARK  3 active torsions:
REMARK  status: ('A' for Active; 'I' for Inactive)
REMARK    1  A    between atoms: O_1  and  C_3
REMARK    2  A    between atoms: O_1  and  C_9
REMARK    3  A    between atoms: O_2  and  C_4
REMARK                            x       y       z     vdW  Elec       q    Type
REMARK                         _______ _______ _______ _____ _____    ______ ____
ROOT
ATOM      1  C   UNL     1     -18.824  -1.762   8.801  0.00  0.00    +0.000 A 
ATOM      2  C   UNL     1     -17.812  -1.286   7.969  0.00  0.00    +0.000 A 
ATOM      3  C   UNL     1     -20.031  -2.197   8.254  0.00  0.00    +0.000 A 
ATOM      4  C   UNL     1     -18.007  -1.245   6.588  0.00  0.00    +0.000 A 
ATOM      5  C   UNL     1     -20.225  -2.156   6.873  0.00  0.00    +0.000 A 
ATOM      6  C   UNL     1     -19.213  -1.680   6.040  0.00  0.00    +0.000 A 
ATOM      7  H   UNL     1     -20.861  -2.579   8.838  0.00  0.00    +0.000 HD
ATOM      8  H   UNL     1     -17.221  -0.875   5.933  0.00  0.00    +0.000 HD
ATOM      9  H   UNL     1     -21.164  -2.495   6.445  0.00  0.00    +0.000 HD
ATOM     10  H   UNL     1     -19.364  -1.648   4.966  0.00  0.00    +0.000 HD
ENDROOT
BRANCH   2  11
ATOM     11  O   UNL     1     -16.628  -0.859   8.491  0.00  0.00    +0.000 OA
ATOM     12  H   UNL     1     -16.376  -0.034   8.041  0.00  0.00    +0.000 HD
ENDBRANCH   2  11
BRANCH   1  13
ATOM     13  O   UNL     1     -18.646  -1.807  10.152  0.00  0.00    +0.000 OA
BRANCH  13  14
ATOM     14  C   UNL     1     -19.799  -2.069  10.949  0.00  0.00    +0.000 C 
ATOM     15  H   UNL     1     -19.528  -2.467  11.933  0.00  0.00    +0.000 HD
ATOM     16  H   UNL     1     -20.517  -2.709  10.424  0.00  0.00    +0.000 HD
ATOM     17  H   UNL     1     -20.297  -1.108  11.121  0.00  0.00    +0.000 HD
ENDBRANCH  13  14
ENDBRANCH   1  13
TORSDOF 3
ENDMDL
MODEL 7
REMARK VINA RESULT:    -4.062      1.598      2.434
REMARK INTER + INTRA:          -4.587
REMARK INTER:                  -4.546
REMARK INTRA:                  -0.041
REMARK UNBOUND:                -0.050
REMARK  Name = 460
REMARK  3 active torsions:
REMARK  status: ('A' for Active; 'I' for Inactive)
REMARK    1  A    between atoms: O_1  and  C_3
REMARK    2  A    between atoms: O_1  and  C_9
REMARK    3  A    between atoms: O_2  and  C_4
REMARK                            x       y       z     vdW  Elec       q    Type
REMARK                         _______ _______ _______ _____ _____    ______ ____
ROOT
ATOM      1  C   UNL     1       1.751  -6.386  14.582  0.00  0.00    +0.000 A 
ATOM      2  C   UNL     1       0.690  -6.051  15.422  0.00  0.00    +0.000 A 
ATOM      3  C   UNL     1       2.617  -5.394  14.122  0.00  0.00    +0.000 A 
ATOM      4  C   UNL     1       0.494  -4.724  15.803  0.00  0.00    +0.000 A 
ATOM      5  C   UNL     1       2.421  -4.067  14.503  0.00  0.00    +0.000 A 
ATOM      6  C   UNL     1       1.360  -3.731  15.344  0.00  0.00    +0.000 A 
ATOM      7  H   UNL     1       3.461  -5.580  13.468  0.00  0.00    +0.000 HD
ATOM      8  H   UNL     1      -0.331  -4.456  16.458  0.00  0.00    +0.000 HD
ATOM      9  H   UNL     1       3.095  -3.293  14.147  0.00  0.00    +0.000 HD
ATOM     10  H   UNL     1       1.208  -2.698  15.640  0.00  0.00    +0.000 HD
ENDROOT
BRANCH   2  11
ATOM     11  O   UNL     1      -0.162  -7.012  15.879  0.00  0.00    +0.000 OA
ATOM     12  H   UNL     1      -1.048  -6.619  15.961  0.00  0.00    +0.000 HD
ENDBRANCH   2  11
BRANCH   1  13
ATOM     13  O   UNL     1       1.952  -7.680  14.203  0.00  0.00    +0.000 OA
BRANCH  13  14
ATOM     14  C   UNL     1       2.893  -7.909  13.155  0.00  0.00    +0.000 C 
ATOM     15  H   UNL     1       3.675  -7.143  13.141  0.00  0.00    +0.000 HD
ATOM     16  H   UNL     1       2.397  -8.017  12.184  0.00  0.00    +0.000 HD
ATOM     17  H   UNL     1       3.386  -8.863  13.368  0.00  0.00    +0.000 HD
ENDBRANCH  13  14
ENDBRANCH   1  13
TORSDOF 3
ENDMDL
MODEL 8
REMARK VINA RESULT:    -4.032     24.673     25.113
REMARK INTER + INTRA:          -4.554
REMARK INTER:                  -4.510
REMARK INTRA:                  -0.044
REMARK UNBOUND:                -0.050
REMARK  Name = 460
REMARK  3 active torsions:
REMARK  status: ('A' for Active; 'I' for Inactive)
REMARK    1  A    between atoms: O_1  and  C_3
REMARK    2  A    between atoms: O_1  and  C_9
REMARK    3  A    between atoms: O_2  and  C_4
REMARK                            x       y       z     vdW  Elec       q    Type
REMARK                         _______ _______ _______ _____ _____    ______ ____
ROOT
ATOM      1  C   UNL     1       8.961  -9.979  -8.980  0.00  0.00    +0.000 A 
ATOM      2  C   UNL     1       8.106  -8.942  -9.351  0.00  0.00    +0.000 A 
ATOM      3  C   UNL     1      10.027  -9.730  -8.115  0.00  0.00    +0.000 A 
ATOM      4  C   UNL     1       8.316  -7.655  -8.855  0.00  0.00    +0.000 A 
ATOM      5  C   UNL     1      10.236  -8.443  -7.620  0.00  0.00    +0.000 A 
ATOM      6  C   UNL     1       9.381  -7.405  -7.990  0.00  0.00    +0.000 A 
ATOM      7  H   UNL     1      10.731 -10.485  -7.785  0.00  0.00    +0.000 HD
ATOM      8  H   UNL     1       7.652  -6.841  -9.140  0.00  0.00    +0.000 HD
ATOM      9  H   UNL     1      11.065  -8.247  -6.946  0.00  0.00    +0.000 HD
ATOM     10  H   UNL     1       9.544  -6.403  -7.605  0.00  0.00    +0.000 HD
ENDROOT
BRANCH   2  11
ATOM     11  O   UNL     1       7.061  -9.173 -10.194  0.00  0.00    +0.000 OA
ATOM     12  H   UNL     1       7.399  -9.645 -10.974  0.00  0.00    +0.000 HD
ENDBRANCH   2  11
BRANCH   1  13
ATOM     13  O   UNL     1       8.767 -11.241  -9.457  0.00  0.00    +0.000 OA
BRANCH  13  14
ATOM     14  C   UNL     1       8.973 -12.317  -8.545  0.00  0.00    +0.000 C 
ATOM     15  H   UNL     1       8.039 -12.844  -8.324  0.00  0.00    +0.000 HD
ATOM     16  H   UNL     1       9.489 -11.985  -7.637  0.00  0.00    +0.000 HD
ATOM     17  H   UNL     1       9.634 -13.037  -9.041  0.00  0.00    +0.000 HD
ENDBRANCH  13  14
ENDBRANCH   1  13
TORSDOF 3
ENDMDL
MODEL 9
REMARK VINA RESULT:    -3.937     17.869     19.381
REMARK INTER + INTRA:          -4.448
REMARK INTER:                  -4.400
REMARK INTRA:                  -0.048
REMARK UNBOUND:                -0.050
REMARK  Name = 460
REMARK  3 active torsions:
REMARK  status: ('A' for Active; 'I' for Inactive)
REMARK    1  A    between atoms: O_1  and  C_3
REMARK    2  A    between atoms: O_1  and  C_9
REMARK    3  A    between atoms: O_2  and  C_4
REMARK                            x       y       z     vdW  Elec       q    Type
REMARK                         _______ _______ _______ _____ _____    ______ ____
ROOT
ATOM      1  C   UNL     1      10.681 -10.350  -2.028  0.00  0.00    +0.000 A 
ATOM      2  C   UNL     1       9.514 -10.920  -1.522  0.00  0.00    +0.000 A 
ATOM      3  C   UNL     1      11.003  -9.028  -1.719  0.00  0.00    +0.000 A 
ATOM      4  C   UNL     1       8.668 -10.169  -0.706  0.00  0.00    +0.000 A 
ATOM      5  C   UNL     1      10.157  -8.277  -0.904  0.00  0.00    +0.000 A 
ATOM      6  C   UNL     1       8.988  -8.847  -0.397  0.00  0.00    +0.000 A 
ATOM      7  H   UNL     1      11.892  -8.520  -2.076  0.00  0.00    +0.000 HD
ATOM      8  H   UNL     1       7.756 -10.608  -0.308  0.00  0.00    +0.000 HD
ATOM      9  H   UNL     1      10.406  -7.248  -0.661  0.00  0.00    +0.000 HD
ATOM     10  H   UNL     1       8.330  -8.262   0.238  0.00  0.00    +0.000 HD
ENDROOT
BRANCH   2  11
ATOM     11  O   UNL     1       9.189 -12.211  -1.816  0.00  0.00    +0.000 OA
ATOM     12  H   UNL     1       8.226 -12.312  -1.720  0.00  0.00    +0.000 HD
ENDBRANCH   2  11
BRANCH   1  13
ATOM     13  O   UNL     1      11.516 -11.074  -2.826  0.00  0.00    +0.000 OA
BRANCH  13  14
ATOM     14  C   UNL     1      11.878 -10.495  -4.078  0.00  0.00    +0.000 C 
ATOM     15  H   UNL     1      12.431 -11.203  -4.705  0.00  0.00    +0.000 HD
ATOM     16  H   UNL     1      12.415  -9.549  -3.946  0.00  0.00    +0.000 HD
ATOM     17  H   UNL     1      10.948 -10.261  -4.607  0.00  0.00    +0.000 HD
ENDBRANCH  13  14
ENDBRANCH   1  13
TORSDOF 3
ENDMDL
MODEL 10
REMARK VINA RESULT:    -3.864     24.023     26.405
REMARK INTER + INTRA:          -4.366
REMARK INTER:                  -4.315
REMARK INTRA:                  -0.050
REMARK UNBOUND:                -0.050
REMARK  Name = 460
REMARK  3 active torsions:
REMARK  status: ('A' for Active; 'I' for Inactive)
REMARK    1  A    between atoms: O_1  and  C_3
REMARK    2  A    between atoms: O_1  and  C_9
REMARK    3  A    between atoms: O_2  and  C_4
REMARK                            x       y       z     vdW  Elec       q    Type
REMARK                         _______ _______ _______ _____ _____    ______ ____
ROOT
ATOM      1  C   UNL     1       9.357 -12.301  -8.727  0.00  0.00    +0.000 A 
ATOM      2  C   UNL     1       8.455 -13.142  -9.377  0.00  0.00    +0.000 A 
ATOM      3  C   UNL     1      10.577 -11.988  -9.326  0.00  0.00    +0.000 A 
ATOM      4  C   UNL     1       8.774 -13.672 -10.628  0.00  0.00    +0.000 A 
ATOM      5  C   UNL     1      10.895 -12.518 -10.577  0.00  0.00    +0.000 A 
ATOM      6  C   UNL     1       9.993 -13.360 -11.228  0.00  0.00    +0.000 A 
ATOM      7  H   UNL     1      11.326 -11.343  -8.880  0.00  0.00    +0.000 HD
ATOM      8  H   UNL     1       8.075 -14.329 -11.141  0.00  0.00    +0.000 HD
ATOM      9  H   UNL     1      11.845 -12.275 -11.045  0.00  0.00    +0.000 HD
ATOM     10  H   UNL     1      10.242 -13.772 -12.201  0.00  0.00    +0.000 HD
ENDROOT
BRANCH   2  11
ATOM     11  O   UNL     1       7.260 -13.454  -8.803  0.00  0.00    +0.000 OA
ATOM     12  H   UNL     1       7.306 -14.370  -8.480  0.00  0.00    +0.000 HD
ENDBRANCH   2  11
BRANCH   1  13
ATOM     13  O   UNL     1       9.057 -11.777  -7.505  0.00  0.00    +0.000 OA
BRANCH  13  14
ATOM     14  C   UNL     1       9.967 -12.052  -6.441  0.00  0.00    +0.000 C 
ATOM     15  H   UNL     1      11.008 -12.004  -6.778  0.00  0.00    +0.000 HD
ATOM     16  H   UNL     1       9.734 -13.001  -5.945  0.00  0.00    +0.000 HD
ATOM     17  H   UNL     1       9.838 -11.262  -5.694  0.00  0.00    +0.000 HD
ENDBRANCH  13  14
ENDBRANCH   1  13
TORSDOF 3
ENDMDL
