MODEL 1
REMARK VINA RESULT:    -5.713      0.000      0.000
REMARK INTER + INTRA:          -6.944
REMARK INTER:                  -6.472
REMARK INTRA:                  -0.472
REMARK UNBOUND:                -0.397
REMARK  Name = 4763
REMARK  3 active torsions:
REMARK  status: ('A' for Active; 'I' for Inactive)
REMARK    1  A    between atoms: C_6  and  C_7
REMARK    2  A    between atoms: C_6  and  C_8
REMARK    3  A    between atoms: C_7  and  C_11
REMARK                            x       y       z     vdW  Elec       q    Type
REMARK                         _______ _______ _______ _____ _____    ______ ____
ROOT
ATOM      1  O   UNL     1      11.460  -9.046  -5.939  0.00  0.00    +0.000 OA
ATOM      2  O   UNL     1      13.899 -12.423  -3.567  0.00  0.00    +0.000 OA
ATOM      3  O   UNL     1      11.465 -13.414  -7.320  0.00  0.00    +0.000 OA
ATOM      4  N   UNL     1      11.451 -11.241  -6.580  0.00  0.00    +0.000 N 
ATOM      5  N   UNL     1      12.645 -12.892  -5.422  0.00  0.00    +0.000 N 
ATOM      6  C   UNL     1      12.543 -10.620  -4.449  0.00  0.00    +0.000 C 
ATOM      7  C   UNL     1      11.785 -10.214  -5.716  0.00  0.00    +0.000 C 
ATOM      8  C   UNL     1      13.106 -12.043  -4.431  0.00  0.00    +0.000 C 
ATOM      9  C   UNL     1      11.823 -12.574  -6.492  0.00  0.00    +0.000 C 
ATOM     10  H   UNL     1      10.894 -10.984  -7.390  0.00  0.00    +0.000 HD
ATOM     11  H   UNL     1      12.970 -13.854  -5.377  0.00  0.00    +0.000 HD
ENDROOT
BRANCH   6  12
ATOM     12  C   UNL     1      11.633 -10.446  -3.265  0.00  0.00    +0.000 A 
ATOM     13  C   UNL     1      10.678 -11.416  -2.986  0.00  0.00    +0.000 A 
ATOM     14  C   UNL     1      11.759  -9.320  -2.463  0.00  0.00    +0.000 A 
ATOM     15  C   UNL     1       9.834 -11.255  -1.887  0.00  0.00    +0.000 A 
ATOM     16  C   UNL     1      10.915  -9.159  -1.364  0.00  0.00    +0.000 A 
ATOM     17  C   UNL     1       9.952 -10.127  -1.076  0.00  0.00    +0.000 A 
ATOM     18  H   UNL     1      10.565 -12.301  -3.605  0.00  0.00    +0.000 HD
ATOM     19  H   UNL     1      12.473  -8.520  -2.605  0.00  0.00    +0.000 HD
ATOM     20  H   UNL     1       9.084 -12.008  -1.664  0.00  0.00    +0.000 HD
ATOM     21  H   UNL     1      11.006  -8.281  -0.731  0.00  0.00    +0.000 HD
ATOM     22  H   UNL     1       9.295 -10.001  -0.221  0.00  0.00    +0.000 HD
ENDBRANCH   6  12
BRANCH   6  23
ATOM     23  C   UNL     1      13.731  -9.660  -4.303  0.00  0.00    +0.000 C 
ATOM     24  H   UNL     1      14.313  -9.849  -3.390  0.00  0.00    +0.000 HD
ATOM     25  H   UNL     1      13.419  -8.606  -4.299  0.00  0.00    +0.000 HD
BRANCH  23  26
ATOM     26  C   UNL     1      14.685  -9.790  -5.471  0.00  0.00    +0.000 C 
ATOM     27  H   UNL     1      15.176 -10.767  -5.503  0.00  0.00    +0.000 HD
ATOM     28  H   UNL     1      14.197  -9.619  -6.436  0.00  0.00    +0.000 HD
ATOM     29  H   UNL     1      15.478  -9.039  -5.382  0.00  0.00    +0.000 HD
ENDBRANCH  23  26
ENDBRANCH   6  23
TORSDOF 3
ENDMDL
MODEL 2
REMARK VINA RESULT:    -5.484     23.799     25.332
REMARK INTER + INTRA:          -6.682
REMARK INTER:                  -6.258
REMARK INTRA:                  -0.424
REMARK UNBOUND:                -0.397
REMARK  Name = 4763
REMARK  3 active torsions:
REMARK  status: ('A' for Active; 'I' for Inactive)
REMARK    1  A    between atoms: C_6  and  C_7
REMARK    2  A    between atoms: C_6  and  C_8
REMARK    3  A    between atoms: C_7  and  C_11
REMARK                            x       y       z     vdW  Elec       q    Type
REMARK                         _______ _______ _______ _____ _____    ______ ____
ROOT
ATOM      1  O   UNL     1      10.525  14.688  -5.100  0.00  0.00    +0.000 OA
ATOM      2  O   UNL     1       6.275  12.879  -6.385  0.00  0.00    +0.000 OA
ATOM      3  O   UNL     1       7.112  17.381  -6.546  0.00  0.00    +0.000 OA
ATOM      4  N   UNL     1       8.789  16.008  -5.789  0.00  0.00    +0.000 N 
ATOM      5  N   UNL     1       6.713  15.125  -6.419  0.00  0.00    +0.000 N 
ATOM      6  C   UNL     1       8.393  13.590  -5.448  0.00  0.00    +0.000 C 
ATOM      7  C   UNL     1       9.343  14.792  -5.436  0.00  0.00    +0.000 C 
ATOM      8  C   UNL     1       7.042  13.811  -6.133  0.00  0.00    +0.000 C 
ATOM      9  C   UNL     1       7.509  16.249  -6.263  0.00  0.00    +0.000 C 
ATOM     10  H   UNL     1       9.401  16.817  -5.722  0.00  0.00    +0.000 HD
ATOM     11  H   UNL     1       5.790  15.280  -6.818  0.00  0.00    +0.000 HD
ENDROOT
BRANCH   6  12
ATOM     12  C   UNL     1       8.150  13.153  -4.031  0.00  0.00    +0.000 A 
ATOM     13  C   UNL     1       8.882  12.096  -3.504  0.00  0.00    +0.000 A 
ATOM     14  C   UNL     1       7.199  13.811  -3.263  0.00  0.00    +0.000 A 
ATOM     15  C   UNL     1       8.657  11.690  -2.189  0.00  0.00    +0.000 A 
ATOM     16  C   UNL     1       6.974  13.405  -1.948  0.00  0.00    +0.000 A 
ATOM     17  C   UNL     1       7.703  12.344  -1.410  0.00  0.00    +0.000 A 
ATOM     18  H   UNL     1       9.627  11.569  -4.092  0.00  0.00    +0.000 HD
ATOM     19  H   UNL     1       6.588  14.642  -3.591  0.00  0.00    +0.000 HD
ATOM     20  H   UNL     1       9.225  10.863  -1.771  0.00  0.00    +0.000 HD
ATOM     21  H   UNL     1       6.232  13.915  -1.339  0.00  0.00    +0.000 HD
ATOM     22  H   UNL     1       7.528  12.029  -0.386  0.00  0.00    +0.000 HD
ENDBRANCH   6  12
BRANCH   6  23
ATOM     23  C   UNL     1       9.103  12.456  -6.200  0.00  0.00    +0.000 C 
ATOM     24  H   UNL     1       8.474  11.560  -6.296  0.00  0.00    +0.000 HD
ATOM     25  H   UNL     1      10.047  12.164  -5.719  0.00  0.00    +0.000 HD
BRANCH  23  26
ATOM     26  C   UNL     1       9.483  12.884  -7.601  0.00  0.00    +0.000 C 
ATOM     27  H   UNL     1       9.810  13.928  -7.645  0.00  0.00    +0.000 HD
ATOM     28  H   UNL     1      10.270  12.259  -8.035  0.00  0.00    +0.000 HD
ATOM     29  H   UNL     1       8.612  12.797  -8.260  0.00  0.00    +0.000 HD
ENDBRANCH  23  26
ENDBRANCH   6  23
TORSDOF 3
ENDMDL
MODEL 3
REMARK VINA RESULT:    -5.287     17.082     18.245
REMARK INTER + INTRA:          -6.456
REMARK INTER:                  -5.927
REMARK INTRA:                  -0.529
REMARK UNBOUND:                -0.397
REMARK  Name = 4763
REMARK  3 active torsions:
REMARK  status: ('A' for Active; 'I' for Inactive)
REMARK    1  A    between atoms: C_6  and  C_7
REMARK    2  A    between atoms: C_6  and  C_8
REMARK    3  A    between atoms: C_7  and  C_11
REMARK                            x       y       z     vdW  Elec       q    Type
REMARK                         _______ _______ _______ _____ _____    ______ ____
ROOT
ATOM      1  O   UNL     1      -7.261 -10.819  -9.416  0.00  0.00    +0.000 OA
ATOM      2  O   UNL     1      -2.949  -9.074  -8.256  0.00  0.00    +0.000 OA
ATOM      3  O   UNL     1      -4.902 -12.439  -5.838  0.00  0.00    +0.000 OA
ATOM      4  N   UNL     1      -6.076 -11.579  -7.614  0.00  0.00    +0.000 N 
ATOM      5  N   UNL     1      -3.967 -10.728  -7.048  0.00  0.00    +0.000 N 
ATOM      6  C   UNL     1      -5.230  -9.618  -8.863  0.00  0.00    +0.000 C 
ATOM      7  C   UNL     1      -6.277 -10.720  -8.679  0.00  0.00    +0.000 C 
ATOM      8  C   UNL     1      -3.942  -9.776  -8.052  0.00  0.00    +0.000 C 
ATOM      9  C   UNL     1      -4.980 -11.631  -6.766  0.00  0.00    +0.000 C 
ATOM     10  H   UNL     1      -6.801 -12.272  -7.452  0.00  0.00    +0.000 HD
ATOM     11  H   UNL     1      -3.134 -10.792  -6.468  0.00  0.00    +0.000 HD
ENDROOT
BRANCH   6  12
ATOM     12  C   UNL     1      -5.857  -8.295  -8.521  0.00  0.00    +0.000 A 
ATOM     13  C   UNL     1      -5.853  -7.271  -9.459  0.00  0.00    +0.000 A 
ATOM     14  C   UNL     1      -6.435  -8.112  -7.271  0.00  0.00    +0.000 A 
ATOM     15  C   UNL     1      -6.435  -6.044  -9.142  0.00  0.00    +0.000 A 
ATOM     16  C   UNL     1      -7.017  -6.885  -6.954  0.00  0.00    +0.000 A 
ATOM     17  C   UNL     1      -7.017  -5.850  -7.890  0.00  0.00    +0.000 A 
ATOM     18  H   UNL     1      -5.402  -7.397 -10.439  0.00  0.00    +0.000 HD
ATOM     19  H   UNL     1      -6.485  -8.853  -6.484  0.00  0.00    +0.000 HD
ATOM     20  H   UNL     1      -6.434  -5.238  -9.871  0.00  0.00    +0.000 HD
ATOM     21  H   UNL     1      -7.472  -6.733  -5.980  0.00  0.00    +0.000 HD
ATOM     22  H   UNL     1      -7.470  -4.895  -7.643  0.00  0.00    +0.000 HD
ENDBRANCH   6  12
BRANCH   6  23
ATOM     23  C   UNL     1      -4.835  -9.608 -10.345  0.00  0.00    +0.000 C 
ATOM     24  H   UNL     1      -4.095  -8.829 -10.576  0.00  0.00    +0.000 HD
ATOM     25  H   UNL     1      -5.701  -9.467 -11.007  0.00  0.00    +0.000 HD
BRANCH  23  26
ATOM     26  C   UNL     1      -4.229 -10.932 -10.757  0.00  0.00    +0.000 C 
ATOM     27  H   UNL     1      -3.301 -11.152 -10.220  0.00  0.00    +0.000 HD
ATOM     28  H   UNL     1      -4.915 -11.773 -10.616  0.00  0.00    +0.000 HD
ATOM     29  H   UNL     1      -3.979 -10.905 -11.824  0.00  0.00    +0.000 HD
ENDBRANCH  23  26
ENDBRANCH   6  23
TORSDOF 3
ENDMDL
MODEL 4
REMARK VINA RESULT:    -5.198      2.960      4.161
REMARK INTER + INTRA:          -6.355
REMARK INTER:                  -5.821
REMARK INTRA:                  -0.534
REMARK UNBOUND:                -0.397
REMARK  Name = 4763
REMARK  3 active torsions:
REMARK  status: ('A' for Active; 'I' for Inactive)
REMARK    1  A    between atoms: C_6  and  C_7
REMARK    2  A    between atoms: C_6  and  C_8
REMARK    3  A    between atoms: C_7  and  C_11
REMARK                            x       y       z     vdW  Elec       q    Type
REMARK                         _______ _______ _______ _____ _____    ______ ____
ROOT
ATOM      1  O   UNL     1       8.704  -9.030  -7.724  0.00  0.00    +0.000 OA
ATOM      2  O   UNL     1      12.423 -11.775  -8.992  0.00  0.00    +0.000 OA
ATOM      3  O   UNL     1       8.169 -12.693 -10.423  0.00  0.00    +0.000 OA
ATOM      4  N   UNL     1       8.464 -10.887  -9.037  0.00  0.00    +0.000 N 
ATOM      5  N   UNL     1      10.282 -12.228  -9.660  0.00  0.00    +0.000 N 
ATOM      6  C   UNL     1      10.670 -10.413  -8.022  0.00  0.00    +0.000 C 
ATOM      7  C   UNL     1       9.205 -10.028  -8.246  0.00  0.00    +0.000 C 
ATOM      8  C   UNL     1      11.220 -11.514  -8.933  0.00  0.00    +0.000 C 
ATOM      9  C   UNL     1       8.920 -11.988  -9.746  0.00  0.00    +0.000 C 
ATOM     10  H   UNL     1       7.477 -10.668  -9.136  0.00  0.00    +0.000 HD
ATOM     11  H   UNL     1      10.639 -12.999 -10.218  0.00  0.00    +0.000 HD
ENDROOT
BRANCH   6  12
ATOM     12  C   UNL     1      10.845 -10.838  -6.592  0.00  0.00    +0.000 A 
ATOM     13  C   UNL     1      10.245 -12.009  -6.145  0.00  0.00    +0.000 A 
ATOM     14  C   UNL     1      11.606 -10.057  -5.732  0.00  0.00    +0.000 A 
ATOM     15  C   UNL     1      10.408 -12.404  -4.818  0.00  0.00    +0.000 A 
ATOM     16  C   UNL     1      11.769 -10.452  -4.404  0.00  0.00    +0.000 A 
ATOM     17  C   UNL     1      11.169 -11.626  -3.946  0.00  0.00    +0.000 A 
ATOM     18  H   UNL     1       9.644 -12.629  -6.804  0.00  0.00    +0.000 HD
ATOM     19  H   UNL     1      12.109  -9.136  -5.995  0.00  0.00    +0.000 HD
ATOM     20  H   UNL     1       9.940 -13.318  -4.461  0.00  0.00    +0.000 HD
ATOM     21  H   UNL     1      12.363  -9.847  -3.724  0.00  0.00    +0.000 HD
ATOM     22  H   UNL     1      11.296 -11.933  -2.913  0.00  0.00    +0.000 HD
ENDBRANCH   6  12
BRANCH   6  23
ATOM     23  C   UNL     1      11.514  -9.156  -8.270  0.00  0.00    +0.000 C 
ATOM     24  H   UNL     1      12.585  -9.330  -8.100  0.00  0.00    +0.000 HD
ATOM     25  H   UNL     1      11.199  -8.311  -7.642  0.00  0.00    +0.000 HD
BRANCH  23  26
ATOM     26  C   UNL     1      11.365  -8.671  -9.696  0.00  0.00    +0.000 C 
ATOM     27  H   UNL     1      10.911  -7.677  -9.754  0.00  0.00    +0.000 HD
ATOM     28  H   UNL     1      12.317  -8.646 -10.235  0.00  0.00    +0.000 HD
ATOM     29  H   UNL     1      10.708  -9.353 -10.248  0.00  0.00    +0.000 HD
ENDBRANCH  23  26
ENDBRANCH   6  23
TORSDOF 3
ENDMDL
MODEL 5
REMARK VINA RESULT:    -5.135     17.160     18.535
REMARK INTER + INTRA:          -6.282
REMARK INTER:                  -5.752
REMARK INTRA:                  -0.530
REMARK UNBOUND:                -0.397
REMARK  Name = 4763
REMARK  3 active torsions:
REMARK  status: ('A' for Active; 'I' for Inactive)
REMARK    1  A    between atoms: C_6  and  C_7
REMARK    2  A    between atoms: C_6  and  C_8
REMARK    3  A    between atoms: C_7  and  C_11
REMARK                            x       y       z     vdW  Elec       q    Type
REMARK                         _______ _______ _______ _____ _____    ______ ____
ROOT
ATOM      1  O   UNL     1      -5.845  -9.743 -10.588  0.00  0.00    +0.000 OA
ATOM      2  O   UNL     1      -2.864  -6.219  -9.294  0.00  0.00    +0.000 OA
ATOM      3  O   UNL     1      -7.396  -5.849  -8.739  0.00  0.00    +0.000 OA
ATOM      4  N   UNL     1      -6.590  -7.772  -9.699  0.00  0.00    +0.000 N 
ATOM      5  N   UNL     1      -5.134  -6.050  -9.064  0.00  0.00    +0.000 N 
ATOM      6  C   UNL     1      -4.190  -8.005 -10.252  0.00  0.00    +0.000 C 
ATOM      7  C   UNL     1      -5.600  -8.602 -10.191  0.00  0.00    +0.000 C 
ATOM      8  C   UNL     1      -3.984  -6.694  -9.490  0.00  0.00    +0.000 C 
ATOM      9  C   UNL     1      -6.439  -6.509  -9.147  0.00  0.00    +0.000 C 
ATOM     10  H   UNL     1      -7.536  -8.143  -9.715  0.00  0.00    +0.000 HD
ATOM     11  H   UNL     1      -5.002  -5.149  -8.611  0.00  0.00    +0.000 HD
ENDROOT
BRANCH   6  12
ATOM     12  C   UNL     1      -3.819  -7.789 -11.692  0.00  0.00    +0.000 A 
ATOM     13  C   UNL     1      -2.840  -8.584 -12.275  0.00  0.00    +0.000 A 
ATOM     14  C   UNL     1      -4.460  -6.799 -12.425  0.00  0.00    +0.000 A 
ATOM     15  C   UNL     1      -2.496  -8.384 -13.612  0.00  0.00    +0.000 A 
ATOM     16  C   UNL     1      -4.116  -6.599 -13.762  0.00  0.00    +0.000 A 
ATOM     17  C   UNL     1      -3.134  -7.392 -14.356  0.00  0.00    +0.000 A 
ATOM     18  H   UNL     1      -2.327  -9.361 -11.715  0.00  0.00    +0.000 HD
ATOM     19  H   UNL     1      -5.233  -6.139 -12.053  0.00  0.00    +0.000 HD
ATOM     20  H   UNL     1      -1.731  -9.002 -14.074  0.00  0.00    +0.000 HD
ATOM     21  H   UNL     1      -4.613  -5.827 -14.343  0.00  0.00    +0.000 HD
ATOM     22  H   UNL     1      -2.866  -7.237 -15.397  0.00  0.00    +0.000 HD
ENDBRANCH   6  12
BRANCH   6  23
ATOM     23  C   UNL     1      -3.232  -9.038  -9.645  0.00  0.00    +0.000 C 
ATOM     24  H   UNL     1      -2.185  -8.706  -9.674  0.00  0.00    +0.000 HD
ATOM     25  H   UNL     1      -3.297 -10.014 -10.148  0.00  0.00    +0.000 HD
BRANCH  23  26
ATOM     26  C   UNL     1      -3.571  -9.312  -8.196  0.00  0.00    +0.000 C 
ATOM     27  H   UNL     1      -4.151 -10.231  -8.068  0.00  0.00    +0.000 HD
ATOM     28  H   UNL     1      -2.683  -9.376  -7.559  0.00  0.00    +0.000 HD
ATOM     29  H   UNL     1      -4.183  -8.493  -7.802  0.00  0.00    +0.000 HD
ENDBRANCH  23  26
ENDBRANCH   6  23
TORSDOF 3
ENDMDL
MODEL 6
REMARK VINA RESULT:    -5.070     21.002     22.187
REMARK INTER + INTRA:          -6.208
REMARK INTER:                  -5.680
REMARK INTRA:                  -0.528
REMARK UNBOUND:                -0.397
REMARK  Name = 4763
REMARK  3 active torsions:
REMARK  status: ('A' for Active; 'I' for Inactive)
REMARK    1  A    between atoms: C_6  and  C_7
REMARK    2  A    between atoms: C_6  and  C_8
REMARK    3  A    between atoms: C_7  and  C_11
REMARK                            x       y       z     vdW  Elec       q    Type
REMARK                         _______ _______ _______ _____ _____    ______ ____
ROOT
ATOM      1  O   UNL     1      20.734  11.282   1.577  0.00  0.00    +0.000 OA
ATOM      2  O   UNL     1      20.418   6.771  -0.013  0.00  0.00    +0.000 OA
ATOM      3  O   UNL     1      21.135  10.276  -2.874  0.00  0.00    +0.000 OA
ATOM      4  N   UNL     1      20.890  10.751  -0.642  0.00  0.00    +0.000 N 
ATOM      5  N   UNL     1      20.739   8.546  -1.419  0.00  0.00    +0.000 N 
ATOM      6  C   UNL     1      20.284   8.979   0.974  0.00  0.00    +0.000 C 
ATOM      7  C   UNL     1      20.665  10.434   0.685  0.00  0.00    +0.000 C 
ATOM      8  C   UNL     1      20.495   7.990  -0.175  0.00  0.00    +0.000 C 
ATOM      9  C   UNL     1      20.928   9.885  -1.724  0.00  0.00    +0.000 C 
ATOM     10  H   UNL     1      21.082  11.729  -0.843  0.00  0.00    +0.000 HD
ATOM     11  H   UNL     1      20.818   7.894  -2.195  0.00  0.00    +0.000 HD
ENDROOT
BRANCH   6  12
ATOM     12  C   UNL     1      18.842   8.931   1.394  0.00  0.00    +0.000 A 
ATOM     13  C   UNL     1      18.502   8.364   2.616  0.00  0.00    +0.000 A 
ATOM     14  C   UNL     1      17.866   9.457   0.557  0.00  0.00    +0.000 A 
ATOM     15  C   UNL     1      17.163   8.320   3.005  0.00  0.00    +0.000 A 
ATOM     16  C   UNL     1      16.528   9.413   0.947  0.00  0.00    +0.000 A 
ATOM     17  C   UNL     1      16.176   8.844   2.172  0.00  0.00    +0.000 A 
ATOM     18  H   UNL     1      19.252   7.946   3.280  0.00  0.00    +0.000 HD
ATOM     19  H   UNL     1      18.042   9.917  -0.406  0.00  0.00    +0.000 HD
ATOM     20  H   UNL     1      16.889   7.877   3.959  0.00  0.00    +0.000 HD
ATOM     21  H   UNL     1      15.758   9.822   0.299  0.00  0.00    +0.000 HD
ATOM     22  H   UNL     1      15.134   8.811   2.475  0.00  0.00    +0.000 HD
ENDBRANCH   6  12
BRANCH   6  23
ATOM     23  C   UNL     1      21.155   8.505   2.145  0.00  0.00    +0.000 C 
ATOM     24  H   UNL     1      20.925   7.474   2.448  0.00  0.00    +0.000 HD
ATOM     25  H   UNL     1      21.055   9.152   3.028  0.00  0.00    +0.000 HD
BRANCH  23  26
ATOM     26  C   UNL     1      22.624   8.544   1.784  0.00  0.00    +0.000 C 
ATOM     27  H   UNL     1      22.792   8.856   0.749  0.00  0.00    +0.000 HD
ATOM     28  H   UNL     1      23.203   9.203   2.439  0.00  0.00    +0.000 HD
ATOM     29  H   UNL     1      23.054   7.541   1.887  0.00  0.00    +0.000 HD
ENDBRANCH  23  26
ENDBRANCH   6  23
TORSDOF 3
ENDMDL
MODEL 7
REMARK VINA RESULT:    -5.057     17.186     18.518
REMARK INTER + INTRA:          -6.193
REMARK INTER:                  -5.673
REMARK INTRA:                  -0.520
REMARK UNBOUND:                -0.397
REMARK  Name = 4763
REMARK  3 active torsions:
REMARK  status: ('A' for Active; 'I' for Inactive)
REMARK    1  A    between atoms: C_6  and  C_7
REMARK    2  A    between atoms: C_6  and  C_8
REMARK    3  A    between atoms: C_7  and  C_11
REMARK                            x       y       z     vdW  Elec       q    Type
REMARK                         _______ _______ _______ _____ _____    ______ ____
ROOT
ATOM      1  O   UNL     1      -5.900 -11.330  -9.709  0.00  0.00    +0.000 OA
ATOM      2  O   UNL     1      -5.412  -9.073  -5.508  0.00  0.00    +0.000 OA
ATOM      3  O   UNL     1      -9.536  -9.851  -7.346  0.00  0.00    +0.000 OA
ATOM      4  N   UNL     1      -7.692 -10.545  -8.525  0.00  0.00    +0.000 N 
ATOM      5  N   UNL     1      -7.454  -9.444  -6.470  0.00  0.00    +0.000 N 
ATOM      6  C   UNL     1      -5.408  -9.993  -7.749  0.00  0.00    +0.000 C 
ATOM      7  C   UNL     1      -6.335 -10.695  -8.746  0.00  0.00    +0.000 C 
ATOM      8  C   UNL     1      -6.070  -9.474  -6.470  0.00  0.00    +0.000 C 
ATOM      9  C   UNL     1      -8.310  -9.934  -7.444  0.00  0.00    +0.000 C 
ATOM     10  H   UNL     1      -8.308 -10.957  -9.219  0.00  0.00    +0.000 HD
ATOM     11  H   UNL     1      -7.895  -9.043  -5.646  0.00  0.00    +0.000 HD
ENDROOT
BRANCH   6  12
ATOM     12  C   UNL     1      -4.733  -8.844  -8.444  0.00  0.00    +0.000 A 
ATOM     13  C   UNL     1      -3.386  -8.937  -8.772  0.00  0.00    +0.000 A 
ATOM     14  C   UNL     1      -5.463  -7.704  -8.752  0.00  0.00    +0.000 A 
ATOM     15  C   UNL     1      -2.760  -7.871  -9.417  0.00  0.00    +0.000 A 
ATOM     16  C   UNL     1      -4.836  -6.638  -9.397  0.00  0.00    +0.000 A 
ATOM     17  C   UNL     1      -3.484  -6.721  -9.730  0.00  0.00    +0.000 A 
ATOM     18  H   UNL     1      -2.801  -9.820  -8.535  0.00  0.00    +0.000 HD
ATOM     19  H   UNL     1      -6.512  -7.548  -8.536  0.00  0.00    +0.000 HD
ATOM     20  H   UNL     1      -1.706  -7.936  -9.676  0.00  0.00    +0.000 HD
ATOM     21  H   UNL     1      -5.400  -5.742  -9.642  0.00  0.00    +0.000 HD
ATOM     22  H   UNL     1      -2.996  -5.892 -10.233  0.00  0.00    +0.000 HD
ENDBRANCH   6  12
BRANCH   6  23
ATOM     23  C   UNL     1      -4.341 -11.011  -7.326  0.00  0.00    +0.000 C 
ATOM     24  H   UNL     1      -3.587 -10.573  -6.657  0.00  0.00    +0.000 HD
ATOM     25  H   UNL     1      -3.820 -11.452  -8.188  0.00  0.00    +0.000 HD
BRANCH  23  26
ATOM     26  C   UNL     1      -4.961 -12.179  -6.591  0.00  0.00    +0.000 C 
ATOM     27  H   UNL     1      -5.454 -11.875  -5.663  0.00  0.00    +0.000 HD
ATOM     28  H   UNL     1      -5.686 -12.726  -7.202  0.00  0.00    +0.000 HD
ATOM     29  H   UNL     1      -4.178 -12.895  -6.315  0.00  0.00    +0.000 HD
ENDBRANCH  23  26
ENDBRANCH   6  23
TORSDOF 3
ENDMDL
MODEL 8
REMARK VINA RESULT:    -5.039      3.536      5.148
REMARK INTER + INTRA:          -6.173
REMARK INTER:                  -5.646
REMARK INTRA:                  -0.527
REMARK UNBOUND:                -0.397
REMARK  Name = 4763
REMARK  3 active torsions:
REMARK  status: ('A' for Active; 'I' for Inactive)
REMARK    1  A    between atoms: C_6  and  C_7
REMARK    2  A    between atoms: C_6  and  C_8
REMARK    3  A    between atoms: C_7  and  C_11
REMARK                            x       y       z     vdW  Elec       q    Type
REMARK                         _______ _______ _______ _____ _____    ______ ____
ROOT
ATOM      1  O   UNL     1      12.077  -8.935  -9.869  0.00  0.00    +0.000 OA
ATOM      2  O   UNL     1       9.157 -11.680  -7.238  0.00  0.00    +0.000 OA
ATOM      3  O   UNL     1       7.689  -7.807  -9.196  0.00  0.00    +0.000 OA
ATOM      4  N   UNL     1       9.893  -8.380  -9.481  0.00  0.00    +0.000 N 
ATOM      5  N   UNL     1       8.464  -9.722  -8.198  0.00  0.00    +0.000 N 
ATOM      6  C   UNL     1      10.862 -10.326  -8.300  0.00  0.00    +0.000 C 
ATOM      7  C   UNL     1      11.012  -9.170  -9.294  0.00  0.00    +0.000 C 
ATOM      8  C   UNL     1       9.431 -10.658  -7.870  0.00  0.00    +0.000 C 
ATOM      9  C   UNL     1       8.621  -8.580  -8.968  0.00  0.00    +0.000 C 
ATOM     10  H   UNL     1      10.008  -7.576 -10.092  0.00  0.00    +0.000 HD
ATOM     11  H   UNL     1       7.524  -9.911  -7.860  0.00  0.00    +0.000 HD
ENDROOT
BRANCH   6  12
ATOM     12  C   UNL     1      11.675 -10.018  -7.075  0.00  0.00    +0.000 A 
ATOM     13  C   UNL     1      11.426  -8.853  -6.360  0.00  0.00    +0.000 A 
ATOM     14  C   UNL     1      12.666 -10.902  -6.669  0.00  0.00    +0.000 A 
ATOM     15  C   UNL     1      12.181  -8.567  -5.223  0.00  0.00    +0.000 A 
ATOM     16  C   UNL     1      13.421 -10.616  -5.531  0.00  0.00    +0.000 A 
ATOM     17  C   UNL     1      13.178  -9.448  -4.807  0.00  0.00    +0.000 A 
ATOM     18  H   UNL     1      10.657  -8.149  -6.666  0.00  0.00    +0.000 HD
ATOM     19  H   UNL     1      12.925 -11.830  -7.162  0.00  0.00    +0.000 HD
ATOM     20  H   UNL     1      11.991  -7.657  -4.660  0.00  0.00    +0.000 HD
ATOM     21  H   UNL     1      14.198 -11.302  -5.206  0.00  0.00    +0.000 HD
ATOM     22  H   UNL     1      13.766  -9.226  -3.922  0.00  0.00    +0.000 HD
ENDBRANCH   6  12
BRANCH   6  23
ATOM     23  C   UNL     1      11.436 -11.580  -8.971  0.00  0.00    +0.000 C 
ATOM     24  H   UNL     1      11.459 -12.445  -8.293  0.00  0.00    +0.000 HD
ATOM     25  H   UNL     1      12.453 -11.419  -9.357  0.00  0.00    +0.000 HD
BRANCH  23  26
ATOM     26  C   UNL     1      10.611 -11.982 -10.174  0.00  0.00    +0.000 C 
ATOM     27  H   UNL     1      11.224 -12.149 -11.065  0.00  0.00    +0.000 HD
ATOM     28  H   UNL     1      10.014 -12.882  -9.995  0.00  0.00    +0.000 HD
ATOM     29  H   UNL     1       9.906 -11.180 -10.420  0.00  0.00    +0.000 HD
ENDBRANCH  23  26
ENDBRANCH   6  23
TORSDOF 3
ENDMDL
MODEL 9
REMARK VINA RESULT:    -4.956      4.134      7.019
REMARK INTER + INTRA:          -6.077
REMARK INTER:                  -5.681
REMARK INTRA:                  -0.397
REMARK UNBOUND:                -0.397
REMARK  Name = 4763
REMARK  3 active torsions:
REMARK  status: ('A' for Active; 'I' for Inactive)
REMARK    1  A    between atoms: C_6  and  C_7
REMARK    2  A    between atoms: C_6  and  C_8
REMARK    3  A    between atoms: C_7  and  C_11
REMARK                            x       y       z     vdW  Elec       q    Type
REMARK                         _______ _______ _______ _____ _____    ______ ____
ROOT
ATOM      1  O   UNL     1      12.382 -12.527  -7.930  0.00  0.00    +0.000 OA
ATOM      2  O   UNL     1       9.403  -9.118  -9.507  0.00  0.00    +0.000 OA
ATOM      3  O   UNL     1       7.947 -13.385  -8.695  0.00  0.00    +0.000 OA
ATOM      4  N   UNL     1      10.173 -12.933  -8.359  0.00  0.00    +0.000 N 
ATOM      5  N   UNL     1       8.715 -11.267  -9.127  0.00  0.00    +0.000 N 
ATOM      6  C   UNL     1      11.126 -10.732  -8.967  0.00  0.00    +0.000 C 
ATOM      7  C   UNL     1      11.297 -12.129  -8.361  0.00  0.00    +0.000 C 
ATOM      8  C   UNL     1       9.684 -10.282  -9.214  0.00  0.00    +0.000 C 
ATOM      9  C   UNL     1       8.883 -12.584  -8.731  0.00  0.00    +0.000 C 
ATOM     10  H   UNL     1      10.299 -13.881  -8.014  0.00  0.00    +0.000 HD
ATOM     11  H   UNL     1       7.765 -10.982  -9.350  0.00  0.00    +0.000 HD
ENDROOT
BRANCH   6  12
ATOM     12  C   UNL     1      11.879 -10.674 -10.266  0.00  0.00    +0.000 A 
ATOM     13  C   UNL     1      12.615  -9.539 -10.582  0.00  0.00    +0.000 A 
ATOM     14  C   UNL     1      11.834 -11.756 -11.134  0.00  0.00    +0.000 A 
ATOM     15  C   UNL     1      13.314  -9.485 -11.787  0.00  0.00    +0.000 A 
ATOM     16  C   UNL     1      12.534 -11.702 -12.340  0.00  0.00    +0.000 A 
ATOM     17  C   UNL     1      13.274 -10.566 -12.667  0.00  0.00    +0.000 A 
ATOM     18  H   UNL     1      12.658  -8.683  -9.915  0.00  0.00    +0.000 HD
ATOM     19  H   UNL     1      11.291 -12.677 -10.968  0.00  0.00    +0.000 HD
ATOM     20  H   UNL     1      13.891  -8.599 -12.041  0.00  0.00    +0.000 HD
ATOM     21  H   UNL     1      12.504 -12.544 -13.026  0.00  0.00    +0.000 HD
ATOM     22  H   UNL     1      13.819 -10.524 -13.605  0.00  0.00    +0.000 HD
ENDBRANCH   6  12
BRANCH   6  23
ATOM     23  C   UNL     1      11.753  -9.731  -7.987  0.00  0.00    +0.000 C 
ATOM     24  H   UNL     1      11.696  -8.697  -8.352  0.00  0.00    +0.000 HD
ATOM     25  H   UNL     1      12.805  -9.962  -7.771  0.00  0.00    +0.000 HD
BRANCH  23  26
ATOM     26  C   UNL     1      11.052  -9.767  -6.646  0.00  0.00    +0.000 C 
ATOM     27  H   UNL     1      10.254  -9.021  -6.572  0.00  0.00    +0.000 HD
ATOM     28  H   UNL     1      10.625 -10.749  -6.419  0.00  0.00    +0.000 HD
ATOM     29  H   UNL     1      11.771  -9.544  -5.850  0.00  0.00    +0.000 HD
ENDBRANCH  23  26
ENDBRANCH   6  23
TORSDOF 3
ENDMDL
MODEL 10
REMARK VINA RESULT:    -4.923      2.634      4.528
REMARK INTER + INTRA:          -6.039
REMARK INTER:                  -5.508
REMARK INTRA:                  -0.531
REMARK UNBOUND:                -0.397
REMARK  Name = 4763
REMARK  3 active torsions:
REMARK  status: ('A' for Active; 'I' for Inactive)
REMARK    1  A    between atoms: C_6  and  C_7
REMARK    2  A    between atoms: C_6  and  C_8
REMARK    3  A    between atoms: C_7  and  C_11
REMARK                            x       y       z     vdW  Elec       q    Type
REMARK                         _______ _______ _______ _____ _____    ______ ____
ROOT
ATOM      1  O   UNL     1      14.079 -12.522  -6.935  0.00  0.00    +0.000 OA
ATOM      2  O   UNL     1      12.508 -10.551  -2.857  0.00  0.00    +0.000 OA
ATOM      3  O   UNL     1      14.806  -8.102  -5.974  0.00  0.00    +0.000 OA
ATOM      4  N   UNL     1      14.460 -10.330  -6.408  0.00  0.00    +0.000 N 
ATOM      5  N   UNL     1      13.690  -9.365  -4.416  0.00  0.00    +0.000 N 
ATOM      6  C   UNL     1      13.427 -11.807  -4.714  0.00  0.00    +0.000 C 
ATOM      7  C   UNL     1      14.000 -11.601  -6.119  0.00  0.00    +0.000 C 
ATOM      8  C   UNL     1      13.148 -10.534  -3.911  0.00  0.00    +0.000 C 
ATOM      9  C   UNL     1      14.356  -9.193  -5.620  0.00  0.00    +0.000 C 
ATOM     10  H   UNL     1      14.897 -10.206  -7.317  0.00  0.00    +0.000 HD
ATOM     11  H   UNL     1      13.558  -8.528  -3.853  0.00  0.00    +0.000 HD
ENDROOT
BRANCH   6  12
ATOM     12  C   UNL     1      14.371 -12.675  -3.930  0.00  0.00    +0.000 A 
ATOM     13  C   UNL     1      13.993 -13.969  -3.593  0.00  0.00    +0.000 A 
ATOM     14  C   UNL     1      15.610 -12.175  -3.553  0.00  0.00    +0.000 A 
ATOM     15  C   UNL     1      14.869 -14.775  -2.866  0.00  0.00    +0.000 A 
ATOM     16  C   UNL     1      16.486 -12.981  -2.826  0.00  0.00    +0.000 A 
ATOM     17  C   UNL     1      16.116 -14.282  -2.482  0.00  0.00    +0.000 A 
ATOM     18  H   UNL     1      13.027 -14.374  -3.878  0.00  0.00    +0.000 HD
ATOM     19  H   UNL     1      15.985 -11.185  -3.774  0.00  0.00    +0.000 HD
ATOM     20  H   UNL     1      14.580 -15.788  -2.598  0.00  0.00    +0.000 HD
ATOM     21  H   UNL     1      17.458 -12.599  -2.527  0.00  0.00    +0.000 HD
ATOM     22  H   UNL     1      16.798 -14.909  -1.917  0.00  0.00    +0.000 HD
ENDBRANCH   6  12
BRANCH   6  23
ATOM     23  C   UNL     1      12.092 -12.546  -4.871  0.00  0.00    +0.000 C 
ATOM     24  H   UNL     1      11.639 -12.803  -3.903  0.00  0.00    +0.000 HD
ATOM     25  H   UNL     1      12.192 -13.469  -5.459  0.00  0.00    +0.000 HD
BRANCH  23  26
ATOM     26  C   UNL     1      11.085 -11.701  -5.621  0.00  0.00    +0.000 C 
ATOM     27  H   UNL     1      11.151 -10.641  -5.359  0.00  0.00    +0.000 HD
ATOM     28  H   UNL     1      11.183 -11.793  -6.707  0.00  0.00    +0.000 HD
ATOM     29  H   UNL     1      10.070 -12.028  -5.367  0.00  0.00    +0.000 HD
ENDBRANCH  23  26
ENDBRANCH   6  23
TORSDOF 3
ENDMDL
