MODEL 1
REMARK VINA RESULT:    -4.264      0.000      0.000
REMARK INTER + INTRA:          -6.315
REMARK INTER:                  -5.855
REMARK INTRA:                  -0.460
REMARK UNBOUND:                -0.306
REMARK  Name = 8908
REMARK  8 active torsions:
REMARK  status: ('A' for Active; 'I' for Inactive)
REMARK    1  A    between atoms: O_1  and  C_7
REMARK    2  A    between atoms: O_1  and  C_9
REMARK    3  A    between atoms: C_3  and  C_4
REMARK    4  A    between atoms: C_3  and  C_5
REMARK    5  A    between atoms: C_4  and  C_6
REMARK    6  A    between atoms: C_5  and  C_7
REMARK    7  A    between atoms: C_6  and  C_8
REMARK    8  A    between atoms: C_9  and  C_10
REMARK                            x       y       z     vdW  Elec       q    Type
REMARK                         _______ _______ _______ _____ _____    ______ ____
ROOT
ATOM      1  C   UNL     1       4.756  -3.196  -2.461  0.00  0.00    +0.000 C 
ATOM      2  H   UNL     1       4.111  -3.010  -3.329  0.00  0.00    +0.000 HD
ATOM      3  H   UNL     1       4.591  -4.238  -2.161  0.00  0.00    +0.000 HD
ENDROOT
BRANCH   1   4
ATOM      4  C   UNL     1       4.328  -2.273  -1.316  0.00  0.00    +0.000 C 
ATOM      5  H   UNL     1       5.222  -1.842  -0.848  0.00  0.00    +0.000 HD
ATOM      6  H   UNL     1       3.755  -1.435  -1.733  0.00  0.00    +0.000 HD
BRANCH   4   7
ATOM      7  C   UNL     1       3.491  -2.978  -0.248  0.00  0.00    +0.000 C 
ATOM      8  H   UNL     1       2.759  -2.278   0.172  0.00  0.00    +0.000 HD
ATOM      9  H   UNL     1       2.929  -3.802  -0.702  0.00  0.00    +0.000 HD
BRANCH   7  10
ATOM     10  C   UNL     1       4.365  -3.518   0.874  0.00  0.00    +0.000 C 
ATOM     11  H   UNL     1       4.363  -2.826   1.722  0.00  0.00    +0.000 HD
ATOM     12  H   UNL     1       3.998  -4.487   1.225  0.00  0.00    +0.000 HD
ATOM     13  H   UNL     1       5.400  -3.642   0.540  0.00  0.00    +0.000 HD
ENDBRANCH   7  10
ENDBRANCH   4   7
ENDBRANCH   1   4
BRANCH   1  14
ATOM     14  C   UNL     1       6.217  -3.017  -2.872  0.00  0.00    +0.000 C 
ATOM     15  H   UNL     1       6.372  -2.013  -3.289  0.00  0.00    +0.000 HD
ATOM     16  H   UNL     1       6.474  -3.718  -3.675  0.00  0.00    +0.000 HD
BRANCH  14  17
ATOM     17  C   UNL     1       7.159  -3.229  -1.694  0.00  0.00    +0.000 C 
ATOM     18  H   UNL     1       6.680  -2.896  -0.766  0.00  0.00    +0.000 HD
ATOM     19  H   UNL     1       7.414  -4.291  -1.605  0.00  0.00    +0.000 HD
BRANCH  17  20
ATOM     20  O   UNL     1       8.344  -2.475  -1.912  0.00  0.00    +0.000 OA
BRANCH  20  22
ATOM     21  O   UNL     1      10.064  -1.650  -0.610  0.00  0.00    +0.000 OA
ATOM     22  C   UNL     1       8.878  -1.874  -0.805  0.00  0.00    +0.000 C 
BRANCH  22  23
ATOM     23  C   UNL     1       7.787  -1.520   0.160  0.00  0.00    +0.000 C 
ATOM     24  H   UNL     1       8.008  -0.561   0.635  0.00  0.00    +0.000 HD
ATOM     25  H   UNL     1       7.685  -2.308   0.910  0.00  0.00    +0.000 HD
ATOM     26  H   UNL     1       6.840  -1.430  -0.382  0.00  0.00    +0.000 HD
ENDBRANCH  22  23
ENDBRANCH  20  22
ENDBRANCH  17  20
ENDBRANCH  14  17
ENDBRANCH   1  14
TORSDOF 8
ENDMDL
MODEL 2
REMARK VINA RESULT:    -4.089     16.311     17.571
REMARK INTER + INTRA:          -6.068
REMARK INTER:                  -5.682
REMARK INTRA:                  -0.387
REMARK UNBOUND:                -0.306
REMARK  Name = 8908
REMARK  8 active torsions:
REMARK  status: ('A' for Active; 'I' for Inactive)
REMARK    1  A    between atoms: O_1  and  C_7
REMARK    2  A    between atoms: O_1  and  C_9
REMARK    3  A    between atoms: C_3  and  C_4
REMARK    4  A    between atoms: C_3  and  C_5
REMARK    5  A    between atoms: C_4  and  C_6
REMARK    6  A    between atoms: C_5  and  C_7
REMARK    7  A    between atoms: C_6  and  C_8
REMARK    8  A    between atoms: C_9  and  C_10
REMARK                            x       y       z     vdW  Elec       q    Type
REMARK                         _______ _______ _______ _____ _____    ______ ____
ROOT
ATOM      1  C   UNL     1       0.536  -4.454  15.910  0.00  0.00    +0.000 C 
ATOM      2  H   UNL     1      -0.108  -4.109  15.091  0.00  0.00    +0.000 HD
ATOM      3  H   UNL     1       0.281  -3.848  16.788  0.00  0.00    +0.000 HD
ENDROOT
BRANCH   1   4
ATOM      4  C   UNL     1       1.999  -4.198  15.534  0.00  0.00    +0.000 C 
ATOM      5  H   UNL     1       2.611  -4.206  16.445  0.00  0.00    +0.000 HD
ATOM      6  H   UNL     1       2.353  -5.027  14.909  0.00  0.00    +0.000 HD
BRANCH   4   7
ATOM      7  C   UNL     1       2.214  -2.877  14.794  0.00  0.00    +0.000 C 
ATOM      8  H   UNL     1       1.794  -2.945  13.783  0.00  0.00    +0.000 HD
ATOM      9  H   UNL     1       1.684  -2.071  15.314  0.00  0.00    +0.000 HD
BRANCH   7  10
ATOM     10  C   UNL     1       3.693  -2.532  14.696  0.00  0.00    +0.000 C 
ATOM     11  H   UNL     1       4.139  -2.497  15.694  0.00  0.00    +0.000 HD
ATOM     12  H   UNL     1       4.232  -3.281  14.108  0.00  0.00    +0.000 HD
ATOM     13  H   UNL     1       3.837  -1.555  14.225  0.00  0.00    +0.000 HD
ENDBRANCH   7  10
ENDBRANCH   4   7
ENDBRANCH   1   4
BRANCH   1  14
ATOM     14  C   UNL     1       0.232  -5.922  16.206  0.00  0.00    +0.000 C 
ATOM     15  H   UNL     1      -0.822  -6.040  16.488  0.00  0.00    +0.000 HD
ATOM     16  H   UNL     1       0.814  -6.262  17.071  0.00  0.00    +0.000 HD
BRANCH  14  17
ATOM     17  C   UNL     1       0.540  -6.808  15.007  0.00  0.00    +0.000 C 
ATOM     18  H   UNL     1      -0.385  -7.250  14.620  0.00  0.00    +0.000 HD
ATOM     19  H   UNL     1       1.015  -6.217  14.215  0.00  0.00    +0.000 HD
BRANCH  17  20
ATOM     20  O   UNL     1       1.423  -7.845  15.417  0.00  0.00    +0.000 OA
BRANCH  20  22
ATOM     21  O   UNL     1       3.716  -8.118  15.436  0.00  0.00    +0.000 OA
ATOM     22  C   UNL     1       2.677  -7.809  14.871  0.00  0.00    +0.000 C 
BRANCH  22  23
ATOM     23  C   UNL     1       2.602  -7.326  13.454  0.00  0.00    +0.000 C 
ATOM     24  H   UNL     1       1.760  -6.639  13.340  0.00  0.00    +0.000 HD
ATOM     25  H   UNL     1       2.500  -8.178  12.778  0.00  0.00    +0.000 HD
ATOM     26  H   UNL     1       3.524  -6.792  13.205  0.00  0.00    +0.000 HD
ENDBRANCH  22  23
ENDBRANCH  20  22
ENDBRANCH  17  20
ENDBRANCH  14  17
ENDBRANCH   1  14
TORSDOF 8
ENDMDL
MODEL 3
REMARK VINA RESULT:    -4.065     10.624     11.875
REMARK INTER + INTRA:          -6.035
REMARK INTER:                  -5.474
REMARK INTRA:                  -0.561
REMARK UNBOUND:                -0.306
REMARK  Name = 8908
REMARK  8 active torsions:
REMARK  status: ('A' for Active; 'I' for Inactive)
REMARK    1  A    between atoms: O_1  and  C_7
REMARK    2  A    between atoms: O_1  and  C_9
REMARK    3  A    between atoms: C_3  and  C_4
REMARK    4  A    between atoms: C_3  and  C_5
REMARK    5  A    between atoms: C_4  and  C_6
REMARK    6  A    between atoms: C_5  and  C_7
REMARK    7  A    between atoms: C_6  and  C_8
REMARK    8  A    between atoms: C_9  and  C_10
REMARK                            x       y       z     vdW  Elec       q    Type
REMARK                         _______ _______ _______ _____ _____    ______ ____
ROOT
ATOM      1  C   UNL     1       2.922 -13.718   3.476  0.00  0.00    +0.000 C 
ATOM      2  H   UNL     1       2.433 -13.873   4.446  0.00  0.00    +0.000 HD
ATOM      3  H   UNL     1       3.916 -13.303   3.685  0.00  0.00    +0.000 HD
ENDROOT
BRANCH   1   4
ATOM      4  C   UNL     1       2.114 -12.696   2.670  0.00  0.00    +0.000 C 
ATOM      5  H   UNL     1       1.687 -13.190   1.788  0.00  0.00    +0.000 HD
ATOM      6  H   UNL     1       1.268 -12.353   3.279  0.00  0.00    +0.000 HD
BRANCH   4   7
ATOM      7  C   UNL     1       2.938 -11.488   2.221  0.00  0.00    +0.000 C 
ATOM      8  H   UNL     1       2.859 -10.687   2.966  0.00  0.00    +0.000 HD
ATOM      9  H   UNL     1       3.996 -11.766   2.153  0.00  0.00    +0.000 HD
BRANCH   7  10
ATOM     10  C   UNL     1       2.463 -10.964   0.874  0.00  0.00    +0.000 C 
ATOM     11  H   UNL     1       2.866  -9.962   0.694  0.00  0.00    +0.000 HD
ATOM     12  H   UNL     1       2.797 -11.616   0.061  0.00  0.00    +0.000 HD
ATOM     13  H   UNL     1       1.371 -10.902   0.839  0.00  0.00    +0.000 HD
ENDBRANCH   7  10
ENDBRANCH   4   7
ENDBRANCH   1   4
BRANCH   1  14
ATOM     14  C   UNL     1       3.077 -15.063   2.769  0.00  0.00    +0.000 C 
ATOM     15  H   UNL     1       2.423 -15.106   1.888  0.00  0.00    +0.000 HD
ATOM     16  H   UNL     1       2.747 -15.877   3.426  0.00  0.00    +0.000 HD
BRANCH  14  17
ATOM     17  C   UNL     1       4.518 -15.308   2.344  0.00  0.00    +0.000 C 
ATOM     18  H   UNL     1       5.196 -14.692   2.946  0.00  0.00    +0.000 HD
ATOM     19  H   UNL     1       4.775 -16.365   2.481  0.00  0.00    +0.000 HD
BRANCH  17  20
ATOM     20  O   UNL     1       4.658 -14.962   0.972  0.00  0.00    +0.000 OA
BRANCH  20  22
ATOM     21  O   UNL     1       6.087 -13.226   1.501  0.00  0.00    +0.000 OA
ATOM     22  C   UNL     1       5.355 -13.813   0.716  0.00  0.00    +0.000 C 
BRANCH  22  23
ATOM     23  C   UNL     1       5.094 -13.361  -0.689  0.00  0.00    +0.000 C 
ATOM     24  H   UNL     1       4.979 -14.230  -1.343  0.00  0.00    +0.000 HD
ATOM     25  H   UNL     1       5.915 -12.726  -1.032  0.00  0.00    +0.000 HD
ATOM     26  H   UNL     1       4.168 -12.780  -0.716  0.00  0.00    +0.000 HD
ENDBRANCH  22  23
ENDBRANCH  20  22
ENDBRANCH  17  20
ENDBRANCH  14  17
ENDBRANCH   1  14
TORSDOF 8
ENDMDL
MODEL 4
REMARK VINA RESULT:    -3.997      1.966      2.621
REMARK INTER + INTRA:          -5.939
REMARK INTER:                  -5.795
REMARK INTRA:                  -0.145
REMARK UNBOUND:                -0.306
REMARK  Name = 8908
REMARK  8 active torsions:
REMARK  status: ('A' for Active; 'I' for Inactive)
REMARK    1  A    between atoms: O_1  and  C_7
REMARK    2  A    between atoms: O_1  and  C_9
REMARK    3  A    between atoms: C_3  and  C_4
REMARK    4  A    between atoms: C_3  and  C_5
REMARK    5  A    between atoms: C_4  and  C_6
REMARK    6  A    between atoms: C_5  and  C_7
REMARK    7  A    between atoms: C_6  and  C_8
REMARK    8  A    between atoms: C_9  and  C_10
REMARK                            x       y       z     vdW  Elec       q    Type
REMARK                         _______ _______ _______ _____ _____    ______ ____
ROOT
ATOM      1  C   UNL     1       3.791  -2.604  -1.507  0.00  0.00    +0.000 C 
ATOM      2  H   UNL     1       3.758  -2.174  -2.517  0.00  0.00    +0.000 HD
ATOM      3  H   UNL     1       3.470  -3.649  -1.598  0.00  0.00    +0.000 HD
ENDROOT
BRANCH   1   4
ATOM      4  C   UNL     1       2.799  -1.853  -0.614  0.00  0.00    +0.000 C 
ATOM      5  H   UNL     1       2.053  -2.559  -0.230  0.00  0.00    +0.000 HD
ATOM      6  H   UNL     1       3.337  -1.458   0.257  0.00  0.00    +0.000 HD
BRANCH   4   7
ATOM      7  C   UNL     1       2.085  -0.706  -1.330  0.00  0.00    +0.000 C 
ATOM      8  H   UNL     1       2.763  -0.241  -2.056  0.00  0.00    +0.000 HD
ATOM      9  H   UNL     1       1.227  -1.096  -1.891  0.00  0.00    +0.000 HD
BRANCH   7  10
ATOM     10  C   UNL     1       1.608   0.351  -0.345  0.00  0.00    +0.000 C 
ATOM     11  H   UNL     1       2.436   1.009  -0.066  0.00  0.00    +0.000 HD
ATOM     12  H   UNL     1       0.817   0.967  -0.784  0.00  0.00    +0.000 HD
ATOM     13  H   UNL     1       1.218  -0.111   0.567  0.00  0.00    +0.000 HD
ENDBRANCH   7  10
ENDBRANCH   4   7
ENDBRANCH   1   4
BRANCH   1  14
ATOM     14  C   UNL     1       5.228  -2.563  -0.989  0.00  0.00    +0.000 C 
ATOM     15  H   UNL     1       5.280  -3.000   0.016  0.00  0.00    +0.000 HD
ATOM     16  H   UNL     1       5.562  -1.524  -0.882  0.00  0.00    +0.000 HD
BRANCH  14  17
ATOM     17  C   UNL     1       6.178  -3.307  -1.918  0.00  0.00    +0.000 C 
ATOM     18  H   UNL     1       6.159  -4.379  -1.692  0.00  0.00    +0.000 HD
ATOM     19  H   UNL     1       5.880  -3.153  -2.961  0.00  0.00    +0.000 HD
BRANCH  17  20
ATOM     20  O   UNL     1       7.495  -2.807  -1.724  0.00  0.00    +0.000 OA
BRANCH  20  22
ATOM     21  O   UNL     1       8.038  -4.642  -0.430  0.00  0.00    +0.000 OA
ATOM     22  C   UNL     1       8.348  -3.628  -1.039  0.00  0.00    +0.000 C 
BRANCH  22  23
ATOM     23  C   UNL     1       9.749  -3.103  -1.138  0.00  0.00    +0.000 C 
ATOM     24  H   UNL     1      10.003  -2.919  -2.186  0.00  0.00    +0.000 HD
ATOM     25  H   UNL     1      10.445  -3.818  -0.693  0.00  0.00    +0.000 HD
ATOM     26  H   UNL     1       9.821  -2.159  -0.591  0.00  0.00    +0.000 HD
ENDBRANCH  22  23
ENDBRANCH  20  22
ENDBRANCH  17  20
ENDBRANCH  14  17
ENDBRANCH   1  14
TORSDOF 8
ENDMDL
MODEL 5
REMARK VINA RESULT:    -3.926      8.684     10.070
REMARK INTER + INTRA:          -5.839
REMARK INTER:                  -5.637
REMARK INTRA:                  -0.203
REMARK UNBOUND:                -0.306
REMARK  Name = 8908
REMARK  8 active torsions:
REMARK  status: ('A' for Active; 'I' for Inactive)
REMARK    1  A    between atoms: O_1  and  C_7
REMARK    2  A    between atoms: O_1  and  C_9
REMARK    3  A    between atoms: C_3  and  C_4
REMARK    4  A    between atoms: C_3  and  C_5
REMARK    5  A    between atoms: C_4  and  C_6
REMARK    6  A    between atoms: C_5  and  C_7
REMARK    7  A    between atoms: C_6  and  C_8
REMARK    8  A    between atoms: C_9  and  C_10
REMARK                            x       y       z     vdW  Elec       q    Type
REMARK                         _______ _______ _______ _____ _____    ______ ____
ROOT
ATOM      1  C   UNL     1       9.134 -11.120  -1.074  0.00  0.00    +0.000 C 
ATOM      2  H   UNL     1       9.442 -12.169  -0.972  0.00  0.00    +0.000 HD
ATOM      3  H   UNL     1       9.112 -10.900  -2.148  0.00  0.00    +0.000 HD
ENDROOT
BRANCH   1   4
ATOM      4  C   UNL     1      10.181 -10.227  -0.401  0.00  0.00    +0.000 C 
ATOM      5  H   UNL     1       9.722  -9.718   0.456  0.00  0.00    +0.000 HD
ATOM      6  H   UNL     1      10.982 -10.860  -0.001  0.00  0.00    +0.000 HD
BRANCH   4   7
ATOM      7  C   UNL     1      10.783  -9.182  -1.343  0.00  0.00    +0.000 C 
ATOM      8  H   UNL     1      11.862  -9.104  -1.168  0.00  0.00    +0.000 HD
ATOM      9  H   UNL     1      10.643  -9.497  -2.383  0.00  0.00    +0.000 HD
BRANCH   7  10
ATOM     10  C   UNL     1      10.144  -7.817  -1.136  0.00  0.00    +0.000 C 
ATOM     11  H   UNL     1      10.346  -7.454  -0.124  0.00  0.00    +0.000 HD
ATOM     12  H   UNL     1      10.544  -7.086  -1.846  0.00  0.00    +0.000 HD
ATOM     13  H   UNL     1       9.059  -7.868  -1.269  0.00  0.00    +0.000 HD
ENDBRANCH   7  10
ENDBRANCH   4   7
ENDBRANCH   1   4
BRANCH   1  14
ATOM     14  C   UNL     1       7.729 -10.950  -0.497  0.00  0.00    +0.000 C 
ATOM     15  H   UNL     1       7.001 -10.820  -1.308  0.00  0.00    +0.000 HD
ATOM     16  H   UNL     1       7.675 -10.035   0.104  0.00  0.00    +0.000 HD
BRANCH  14  17
ATOM     17  C   UNL     1       7.329 -12.144   0.359  0.00  0.00    +0.000 C 
ATOM     18  H   UNL     1       7.526 -13.077  -0.183  0.00  0.00    +0.000 HD
ATOM     19  H   UNL     1       7.901 -12.144   1.294  0.00  0.00    +0.000 HD
BRANCH  17  20
ATOM     20  O   UNL     1       5.941 -12.053   0.653  0.00  0.00    +0.000 OA
BRANCH  20  22
ATOM     21  O   UNL     1       5.052 -13.903  -0.407  0.00  0.00    +0.000 OA
ATOM     22  C   UNL     1       5.104 -12.696  -0.218  0.00  0.00    +0.000 C 
BRANCH  22  23
ATOM     23  C   UNL     1       4.240 -11.696  -0.925  0.00  0.00    +0.000 C 
ATOM     24  H   UNL     1       3.655 -11.129  -0.196  0.00  0.00    +0.000 HD
ATOM     25  H   UNL     1       3.583 -12.209  -1.632  0.00  0.00    +0.000 HD
ATOM     26  H   UNL     1       4.874 -10.999  -1.481  0.00  0.00    +0.000 HD
ENDBRANCH  22  23
ENDBRANCH  20  22
ENDBRANCH  17  20
ENDBRANCH  14  17
ENDBRANCH   1  14
TORSDOF 8
ENDMDL
MODEL 6
REMARK VINA RESULT:    -3.829     14.047     14.906
REMARK INTER + INTRA:          -5.702
REMARK INTER:                  -5.161
REMARK INTRA:                  -0.541
REMARK UNBOUND:                -0.306
REMARK  Name = 8908
REMARK  8 active torsions:
REMARK  status: ('A' for Active; 'I' for Inactive)
REMARK    1  A    between atoms: O_1  and  C_7
REMARK    2  A    between atoms: O_1  and  C_9
REMARK    3  A    between atoms: C_3  and  C_4
REMARK    4  A    between atoms: C_3  and  C_5
REMARK    5  A    between atoms: C_4  and  C_6
REMARK    6  A    between atoms: C_5  and  C_7
REMARK    7  A    between atoms: C_6  and  C_8
REMARK    8  A    between atoms: C_9  and  C_10
REMARK                            x       y       z     vdW  Elec       q    Type
REMARK                         _______ _______ _______ _____ _____    ______ ____
ROOT
ATOM      1  C   UNL     1      -3.523  -7.768 -10.004  0.00  0.00    +0.000 C 
ATOM      2  H   UNL     1      -2.743  -7.538 -10.740  0.00  0.00    +0.000 HD
ATOM      3  H   UNL     1      -4.296  -8.342 -10.530  0.00  0.00    +0.000 HD
ENDROOT
BRANCH   1   4
ATOM      4  C   UNL     1      -4.133  -6.456  -9.500  0.00  0.00    +0.000 C 
ATOM      5  H   UNL     1      -3.799  -6.276  -8.470  0.00  0.00    +0.000 HD
ATOM      6  H   UNL     1      -3.745  -5.628 -10.107  0.00  0.00    +0.000 HD
BRANCH   4   7
ATOM      7  C   UNL     1      -5.662  -6.441  -9.543  0.00  0.00    +0.000 C 
ATOM      8  H   UNL     1      -6.005  -5.742 -10.315  0.00  0.00    +0.000 HD
ATOM      9  H   UNL     1      -6.035  -7.435  -9.815  0.00  0.00    +0.000 HD
BRANCH   7  10
ATOM     10  C   UNL     1      -6.250  -6.029  -8.201  0.00  0.00    +0.000 C 
ATOM     11  H   UNL     1      -7.305  -6.310  -8.148  0.00  0.00    +0.000 HD
ATOM     12  H   UNL     1      -5.724  -6.521  -7.376  0.00  0.00    +0.000 HD
ATOM     13  H   UNL     1      -6.179  -4.946  -8.057  0.00  0.00    +0.000 HD
ENDBRANCH   7  10
ENDBRANCH   4   7
ENDBRANCH   1   4
BRANCH   1  14
ATOM     14  C   UNL     1      -2.927  -8.627  -8.890  0.00  0.00    +0.000 C 
ATOM     15  H   UNL     1      -2.715  -8.010  -8.008  0.00  0.00    +0.000 HD
ATOM     16  H   UNL     1      -1.961  -9.040  -9.206  0.00  0.00    +0.000 HD
BRANCH  14  17
ATOM     17  C   UNL     1      -3.862  -9.765  -8.502  0.00  0.00    +0.000 C 
ATOM     18  H   UNL     1      -4.841  -9.623  -8.973  0.00  0.00    +0.000 HD
ATOM     19  H   UNL     1      -3.442 -10.723  -8.829  0.00  0.00    +0.000 HD
BRANCH  17  20
ATOM     20  O   UNL     1      -4.014  -9.773  -7.089  0.00  0.00    +0.000 OA
BRANCH  20  22
ATOM     21  O   UNL     1      -5.540  -9.069  -5.504  0.00  0.00    +0.000 OA
ATOM     22  C   UNL     1      -5.266  -9.478  -6.623  0.00  0.00    +0.000 C 
BRANCH  22  23
ATOM     23  C   UNL     1      -6.281  -9.731  -7.697  0.00  0.00    +0.000 C 
ATOM     24  H   UNL     1      -6.391  -8.840  -8.321  0.00  0.00    +0.000 HD
ATOM     25  H   UNL     1      -7.237 -10.006  -7.245  0.00  0.00    +0.000 HD
ATOM     26  H   UNL     1      -5.942 -10.559  -8.327  0.00  0.00    +0.000 HD
ENDBRANCH  22  23
ENDBRANCH  20  22
ENDBRANCH  17  20
ENDBRANCH  14  17
ENDBRANCH   1  14
TORSDOF 8
ENDMDL
MODEL 7
REMARK VINA RESULT:    -3.803      9.596     10.876
REMARK INTER + INTRA:          -5.665
REMARK INTER:                  -5.431
REMARK INTRA:                  -0.235
REMARK UNBOUND:                -0.306
REMARK  Name = 8908
REMARK  8 active torsions:
REMARK  status: ('A' for Active; 'I' for Inactive)
REMARK    1  A    between atoms: O_1  and  C_7
REMARK    2  A    between atoms: O_1  and  C_9
REMARK    3  A    between atoms: C_3  and  C_4
REMARK    4  A    between atoms: C_3  and  C_5
REMARK    5  A    between atoms: C_4  and  C_6
REMARK    6  A    between atoms: C_5  and  C_7
REMARK    7  A    between atoms: C_6  and  C_8
REMARK    8  A    between atoms: C_9  and  C_10
REMARK                            x       y       z     vdW  Elec       q    Type
REMARK                         _______ _______ _______ _____ _____    ______ ____
ROOT
ATOM      1  C   UNL     1       7.045 -13.175  -0.802  0.00  0.00    +0.000 C 
ATOM      2  H   UNL     1       7.150 -14.250  -0.609  0.00  0.00    +0.000 HD
ATOM      3  H   UNL     1       7.095 -13.043  -1.890  0.00  0.00    +0.000 HD
ENDROOT
BRANCH   1   4
ATOM      4  C   UNL     1       8.222 -12.436  -0.155  0.00  0.00    +0.000 C 
ATOM      5  H   UNL     1       7.890 -11.991   0.791  0.00  0.00    +0.000 HD
ATOM      6  H   UNL     1       9.002 -13.166   0.096  0.00  0.00    +0.000 HD
BRANCH   4   7
ATOM      7  C   UNL     1       8.816 -11.344  -1.045  0.00  0.00    +0.000 C 
ATOM      8  H   UNL     1       9.911 -11.381  -0.998  0.00  0.00    +0.000 HD
ATOM      9  H   UNL     1       8.530 -11.519  -2.089  0.00  0.00    +0.000 HD
BRANCH   7  10
ATOM     10  C   UNL     1       8.346  -9.962  -0.615  0.00  0.00    +0.000 C 
ATOM     11  H   UNL     1       7.468  -9.664  -1.196  0.00  0.00    +0.000 HD
ATOM     12  H   UNL     1       8.071  -9.955   0.445  0.00  0.00    +0.000 HD
ATOM     13  H   UNL     1       9.128  -9.214  -0.773  0.00  0.00    +0.000 HD
ENDBRANCH   7  10
ENDBRANCH   4   7
ENDBRANCH   1   4
BRANCH   1  14
ATOM     14  C   UNL     1       5.682 -12.703  -0.300  0.00  0.00    +0.000 C 
ATOM     15  H   UNL     1       4.899 -12.975  -1.020  0.00  0.00    +0.000 HD
ATOM     16  H   UNL     1       5.660 -11.608  -0.234  0.00  0.00    +0.000 HD
BRANCH  14  17
ATOM     17  C   UNL     1       5.351 -13.300   1.061  0.00  0.00    +0.000 C 
ATOM     18  H   UNL     1       4.532 -14.023   0.964  0.00  0.00    +0.000 HD
ATOM     19  H   UNL     1       6.231 -13.807   1.472  0.00  0.00    +0.000 HD
BRANCH  17  20
ATOM     20  O   UNL     1       4.955 -12.253   1.938  0.00  0.00    +0.000 OA
BRANCH  20  22
ATOM     21  O   UNL     1       3.274 -13.042   3.311  0.00  0.00    +0.000 OA
ATOM     22  C   UNL     1       3.672 -12.322   2.407  0.00  0.00    +0.000 C 
BRANCH  22  23
ATOM     23  C   UNL     1       2.799 -11.373   1.642  0.00  0.00    +0.000 C 
ATOM     24  H   UNL     1       2.581 -10.494   2.255  0.00  0.00    +0.000 HD
ATOM     25  H   UNL     1       1.875 -11.877   1.347  0.00  0.00    +0.000 HD
ATOM     26  H   UNL     1       3.322 -11.048   0.739  0.00  0.00    +0.000 HD
ENDBRANCH  22  23
ENDBRANCH  20  22
ENDBRANCH  17  20
ENDBRANCH  14  17
ENDBRANCH   1  14
TORSDOF 8
ENDMDL
MODEL 8
REMARK VINA RESULT:    -3.699     14.813     15.368
REMARK INTER + INTRA:          -5.519
REMARK INTER:                  -5.381
REMARK INTRA:                  -0.138
REMARK UNBOUND:                -0.306
REMARK  Name = 8908
REMARK  8 active torsions:
REMARK  status: ('A' for Active; 'I' for Inactive)
REMARK    1  A    between atoms: O_1  and  C_7
REMARK    2  A    between atoms: O_1  and  C_9
REMARK    3  A    between atoms: C_3  and  C_4
REMARK    4  A    between atoms: C_3  and  C_5
REMARK    5  A    between atoms: C_4  and  C_6
REMARK    6  A    between atoms: C_5  and  C_7
REMARK    7  A    between atoms: C_6  and  C_8
REMARK    8  A    between atoms: C_9  and  C_10
REMARK                            x       y       z     vdW  Elec       q    Type
REMARK                         _______ _______ _______ _____ _____    ______ ____
ROOT
ATOM      1  C   UNL     1       6.854  12.533  -0.911  0.00  0.00    +0.000 C 
ATOM      2  H   UNL     1       6.155  13.114  -1.525  0.00  0.00    +0.000 HD
ATOM      3  H   UNL     1       6.599  11.476  -1.056  0.00  0.00    +0.000 HD
ENDROOT
BRANCH   1   4
ATOM      4  C   UNL     1       6.647  12.901   0.562  0.00  0.00    +0.000 C 
ATOM      5  H   UNL     1       7.625  13.026   1.042  0.00  0.00    +0.000 HD
ATOM      6  H   UNL     1       6.142  13.873   0.616  0.00  0.00    +0.000 HD
BRANCH   4   7
ATOM      7  C   UNL     1       5.834  11.864   1.338  0.00  0.00    +0.000 C 
ATOM      8  H   UNL     1       4.817  11.808   0.931  0.00  0.00    +0.000 HD
ATOM      9  H   UNL     1       6.287  10.872   1.218  0.00  0.00    +0.000 HD
BRANCH   7  10
ATOM     10  C   UNL     1       5.761  12.212   2.817  0.00  0.00    +0.000 C 
ATOM     11  H   UNL     1       5.082  11.527   3.334  0.00  0.00    +0.000 HD
ATOM     12  H   UNL     1       6.746  12.134   3.287  0.00  0.00    +0.000 HD
ATOM     13  H   UNL     1       5.391  13.231   2.962  0.00  0.00    +0.000 HD
ENDBRANCH   7  10
ENDBRANCH   4   7
ENDBRANCH   1   4
BRANCH   1  14
ATOM     14  C   UNL     1       8.280  12.778  -1.404  0.00  0.00    +0.000 C 
ATOM     15  H   UNL     1       8.995  12.623  -0.585  0.00  0.00    +0.000 HD
ATOM     16  H   UNL     1       8.400  13.824  -1.712  0.00  0.00    +0.000 HD
BRANCH  14  17
ATOM     17  C   UNL     1       8.633  11.863  -2.568  0.00  0.00    +0.000 C 
ATOM     18  H   UNL     1       9.708  11.647  -2.562  0.00  0.00    +0.000 HD
ATOM     19  H   UNL     1       8.078  10.922  -2.488  0.00  0.00    +0.000 HD
BRANCH  17  20
ATOM     20  O   UNL     1       8.289  12.514  -3.784  0.00  0.00    +0.000 OA
BRANCH  20  22
ATOM     21  O   UNL     1       9.003  12.063  -5.934  0.00  0.00    +0.000 OA
ATOM     22  C   UNL     1       9.216  12.429  -4.787  0.00  0.00    +0.000 C 
BRANCH  22  23
ATOM     23  C   UNL     1      10.559  12.857  -4.277  0.00  0.00    +0.000 C 
ATOM     24  H   UNL     1      10.628  13.948  -4.284  0.00  0.00    +0.000 HD
ATOM     25  H   UNL     1      11.346  12.416  -4.893  0.00  0.00    +0.000 HD
ATOM     26  H   UNL     1      10.683  12.506  -3.248  0.00  0.00    +0.000 HD
ENDBRANCH  22  23
ENDBRANCH  20  22
ENDBRANCH  17  20
ENDBRANCH  14  17
ENDBRANCH   1  14
TORSDOF 8
ENDMDL
MODEL 9
REMARK VINA RESULT:    -3.696     15.833     17.243
REMARK INTER + INTRA:          -5.514
REMARK INTER:                  -5.018
REMARK INTRA:                  -0.496
REMARK UNBOUND:                -0.306
REMARK  Name = 8908
REMARK  8 active torsions:
REMARK  status: ('A' for Active; 'I' for Inactive)
REMARK    1  A    between atoms: O_1  and  C_7
REMARK    2  A    between atoms: O_1  and  C_9
REMARK    3  A    between atoms: C_3  and  C_4
REMARK    4  A    between atoms: C_3  and  C_5
REMARK    5  A    between atoms: C_4  and  C_6
REMARK    6  A    between atoms: C_5  and  C_7
REMARK    7  A    between atoms: C_6  and  C_8
REMARK    8  A    between atoms: C_9  and  C_10
REMARK                            x       y       z     vdW  Elec       q    Type
REMARK                         _______ _______ _______ _____ _____    ______ ____
ROOT
ATOM      1  C   UNL     1       2.828  -5.522  16.771  0.00  0.00    +0.000 C 
ATOM      2  H   UNL     1       2.174  -6.359  16.498  0.00  0.00    +0.000 HD
ATOM      3  H   UNL     1       2.665  -5.328  17.839  0.00  0.00    +0.000 HD
ENDROOT
BRANCH   1   4
ATOM      4  C   UNL     1       2.414  -4.284  15.969  0.00  0.00    +0.000 C 
ATOM      5  H   UNL     1       2.601  -3.386  16.572  0.00  0.00    +0.000 HD
ATOM      6  H   UNL     1       3.054  -4.207  15.081  0.00  0.00    +0.000 HD
BRANCH   4   7
ATOM      7  C   UNL     1       0.948  -4.304  15.536  0.00  0.00    +0.000 C 
ATOM      8  H   UNL     1       0.490  -3.326  15.728  0.00  0.00    +0.000 HD
ATOM      9  H   UNL     1       0.882  -4.487  14.457  0.00  0.00    +0.000 HD
BRANCH   7  10
ATOM     10  C   UNL     1       0.165  -5.375  16.281  0.00  0.00    +0.000 C 
ATOM     11  H   UNL     1      -0.210  -6.126  15.579  0.00  0.00    +0.000 HD
ATOM     12  H   UNL     1       0.798  -5.882  17.016  0.00  0.00    +0.000 HD
ATOM     13  H   UNL     1      -0.692  -4.942  16.805  0.00  0.00    +0.000 HD
ENDBRANCH   7  10
ENDBRANCH   4   7
ENDBRANCH   1   4
BRANCH   1  14
ATOM     14  C   UNL     1       4.285  -5.929  16.551  0.00  0.00    +0.000 C 
ATOM     15  H   UNL     1       4.517  -6.832  17.130  0.00  0.00    +0.000 HD
ATOM     16  H   UNL     1       4.957  -5.150  16.930  0.00  0.00    +0.000 HD
BRANCH  14  17
ATOM     17  C   UNL     1       4.578  -6.180  15.078  0.00  0.00    +0.000 C 
ATOM     18  H   UNL     1       3.900  -5.586  14.455  0.00  0.00    +0.000 HD
ATOM     19  H   UNL     1       5.613  -5.901  14.850  0.00  0.00    +0.000 HD
BRANCH  17  20
ATOM     20  O   UNL     1       4.388  -7.561  14.800  0.00  0.00    +0.000 OA
BRANCH  20  22
ATOM     21  O   UNL     1       4.443  -8.276  12.605  0.00  0.00    +0.000 OA
ATOM     22  C   UNL     1       3.841  -7.852  13.581  0.00  0.00    +0.000 C 
BRANCH  22  23
ATOM     23  C   UNL     1       2.367  -7.575  13.604  0.00  0.00    +0.000 C 
ATOM     24  H   UNL     1       1.949  -7.874  14.569  0.00  0.00    +0.000 HD
ATOM     25  H   UNL     1       1.877  -8.112  12.788  0.00  0.00    +0.000 HD
ATOM     26  H   UNL     1       2.199  -6.503  13.468  0.00  0.00    +0.000 HD
ENDBRANCH  22  23
ENDBRANCH  20  22
ENDBRANCH  17  20
ENDBRANCH  14  17
ENDBRANCH   1  14
TORSDOF 8
ENDMDL
MODEL 10
REMARK VINA RESULT:    -3.619     14.615     15.842
REMARK INTER + INTRA:          -5.406
REMARK INTER:                  -5.100
REMARK INTRA:                  -0.306
REMARK UNBOUND:                -0.306
REMARK  Name = 8908
REMARK  8 active torsions:
REMARK  status: ('A' for Active; 'I' for Inactive)
REMARK    1  A    between atoms: O_1  and  C_7
REMARK    2  A    between atoms: O_1  and  C_9
REMARK    3  A    between atoms: C_3  and  C_4
REMARK    4  A    between atoms: C_3  and  C_5
REMARK    5  A    between atoms: C_4  and  C_6
REMARK    6  A    between atoms: C_5  and  C_7
REMARK    7  A    between atoms: C_6  and  C_8
REMARK    8  A    between atoms: C_9  and  C_10
REMARK                            x       y       z     vdW  Elec       q    Type
REMARK                         _______ _______ _______ _____ _____    ______ ____
ROOT
ATOM      1  C   UNL     1       8.489  11.930  -2.064  0.00  0.00    +0.000 C 
ATOM      2  H   UNL     1       9.190  11.243  -1.572  0.00  0.00    +0.000 HD
ATOM      3  H   UNL     1       7.491  11.486  -1.967  0.00  0.00    +0.000 HD
ENDROOT
BRANCH   1   4
ATOM      4  C   UNL     1       8.850  12.030  -3.549  0.00  0.00    +0.000 C 
ATOM      5  H   UNL     1       9.561  11.233  -3.801  0.00  0.00    +0.000 HD
ATOM      6  H   UNL     1       7.948  11.848  -4.146  0.00  0.00    +0.000 HD
BRANCH   4   7
ATOM      7  C   UNL     1       9.451  13.382  -3.939  0.00  0.00    +0.000 C 
ATOM      8  H   UNL     1       8.854  13.837  -4.737  0.00  0.00    +0.000 HD
ATOM      9  H   UNL     1       9.419  14.063  -3.080  0.00  0.00    +0.000 HD
BRANCH   7  10
ATOM     10  C   UNL     1      10.888  13.233  -4.414  0.00  0.00    +0.000 C 
ATOM     11  H   UNL     1      11.020  12.275  -4.926  0.00  0.00    +0.000 HD
ATOM     12  H   UNL     1      11.154  14.032  -5.113  0.00  0.00    +0.000 HD
ATOM     13  H   UNL     1      11.586  13.267  -3.572  0.00  0.00    +0.000 HD
ENDBRANCH   7  10
ENDBRANCH   4   7
ENDBRANCH   1   4
BRANCH   1  14
ATOM     14  C   UNL     1       8.513  13.276  -1.341  0.00  0.00    +0.000 C 
ATOM     15  H   UNL     1       8.498  14.097  -2.070  0.00  0.00    +0.000 HD
ATOM     16  H   UNL     1       9.450  13.389  -0.781  0.00  0.00    +0.000 HD
BRANCH  14  17
ATOM     17  C   UNL     1       7.334  13.419  -0.389  0.00  0.00    +0.000 C 
ATOM     18  H   UNL     1       7.688  13.724   0.603  0.00  0.00    +0.000 HD
ATOM     19  H   UNL     1       6.635  14.174  -0.768  0.00  0.00    +0.000 HD
BRANCH  17  20
ATOM     20  O   UNL     1       6.669  12.167  -0.288  0.00  0.00    +0.000 OA
BRANCH  20  22
ATOM     21  O   UNL     1       5.403  10.923   1.190  0.00  0.00    +0.000 OA
ATOM     22  C   UNL     1       6.109  11.886   0.928  0.00  0.00    +0.000 C 
BRANCH  22  23
ATOM     23  C   UNL     1       6.488  12.945   1.919  0.00  0.00    +0.000 C 
ATOM     24  H   UNL     1       7.576  13.001   2.004  0.00  0.00    +0.000 HD
ATOM     25  H   UNL     1       6.036  12.722   2.889  0.00  0.00    +0.000 HD
ATOM     26  H   UNL     1       6.114  13.913   1.574  0.00  0.00    +0.000 HD
ENDBRANCH  22  23
ENDBRANCH  20  22
ENDBRANCH  17  20
ENDBRANCH  14  17
ENDBRANCH   1  14
TORSDOF 8
ENDMDL
