MODEL 1
REMARK VINA RESULT:    -4.318      0.000      0.000
REMARK INTER + INTRA:          -5.941
REMARK INTER:                  -5.765
REMARK INTRA:                  -0.176
REMARK UNBOUND:                -0.235
REMARK  Name = 31276
REMARK  7 active torsions:
REMARK  status: ('A' for Active; 'I' for Inactive)
REMARK    1  A    between atoms: O_1  and  C_5
REMARK    2  A    between atoms: O_1  and  C_8
REMARK    3  A    between atoms: C_3  and  C_4
REMARK    4  A    between atoms: C_3  and  C_6
REMARK    5  A    between atoms: C_3  and  C_7
REMARK    6  A    between atoms: C_4  and  C_5
REMARK    7  A    between atoms: C_8  and  C_9
REMARK                            x       y       z     vdW  Elec       q    Type
REMARK                         _______ _______ _______ _____ _____    ______ ____
ROOT
ATOM      1  C   UNL     1       1.464  -3.147  15.131  0.00  0.00    +0.000 C 
ATOM      2  H   UNL     1       1.513  -3.265  14.041  0.00  0.00    +0.000 HD
ATOM      3  H   UNL     1       0.896  -2.223  15.297  0.00  0.00    +0.000 HD
ENDROOT
BRANCH   1   4
ATOM      4  C   UNL     1       0.690  -4.317  15.727  0.00  0.00    +0.000 C 
ATOM      5  H   UNL     1       1.249  -4.773  16.550  0.00  0.00    +0.000 HD
ATOM      6  H   UNL     1      -0.291  -3.991  16.092  0.00  0.00    +0.000 HD
BRANCH   4   7
ATOM      7  O   UNL     1       0.487  -5.294  14.715  0.00  0.00    +0.000 OA
BRANCH   7   9
ATOM      8  O   UNL     1       1.044  -7.535  14.685  0.00  0.00    +0.000 OA
ATOM      9  C   UNL     1       0.418  -6.589  15.143  0.00  0.00    +0.000 C 
BRANCH   9  10
ATOM     10  C   UNL     1      -0.553  -6.700  16.280  0.00  0.00    +0.000 C 
ATOM     11  H   UNL     1      -0.117  -7.299  17.083  0.00  0.00    +0.000 HD
ATOM     12  H   UNL     1      -1.486  -7.150  15.927  0.00  0.00    +0.000 HD
ATOM     13  H   UNL     1      -0.773  -5.703  16.669  0.00  0.00    +0.000 HD
ENDBRANCH   9  10
ENDBRANCH   7   9
ENDBRANCH   4   7
ENDBRANCH   1   4
BRANCH   1  14
ATOM     14  C   UNL     1       2.885  -2.992  15.699  0.00  0.00    +0.000 C 
ATOM     15  H   UNL     1       2.855  -2.208  16.466  0.00  0.00    +0.000 HD
BRANCH  14  16
ATOM     16  C   UNL     1       3.329  -4.301  16.354  0.00  0.00    +0.000 C 
ATOM     17  H   UNL     1       3.582  -5.038  15.584  0.00  0.00    +0.000 HD
ATOM     18  H   UNL     1       2.547  -4.744  16.978  0.00  0.00    +0.000 HD
ATOM     19  H   UNL     1       4.223  -4.150  16.970  0.00  0.00    +0.000 HD
ENDBRANCH  14  16
BRANCH  14  20
ATOM     20  C   UNL     1       3.897  -2.580  14.629  0.00  0.00    +0.000 C 
ATOM     21  H   UNL     1       4.823  -2.189  15.063  0.00  0.00    +0.000 HD
ATOM     22  H   UNL     1       3.477  -1.797  13.990  0.00  0.00    +0.000 HD
ATOM     23  H   UNL     1       4.152  -3.431  13.988  0.00  0.00    +0.000 HD
ENDBRANCH  14  20
ENDBRANCH   1  14
TORSDOF 7
ENDMDL
MODEL 2
REMARK VINA RESULT:    -4.054     15.600     16.909
REMARK INTER + INTRA:          -5.592
REMARK INTER:                  -5.274
REMARK INTRA:                  -0.318
REMARK UNBOUND:                -0.235
REMARK  Name = 31276
REMARK  7 active torsions:
REMARK  status: ('A' for Active; 'I' for Inactive)
REMARK    1  A    between atoms: O_1  and  C_5
REMARK    2  A    between atoms: O_1  and  C_8
REMARK    3  A    between atoms: C_3  and  C_4
REMARK    4  A    between atoms: C_3  and  C_6
REMARK    5  A    between atoms: C_3  and  C_7
REMARK    6  A    between atoms: C_4  and  C_5
REMARK    7  A    between atoms: C_8  and  C_9
REMARK                            x       y       z     vdW  Elec       q    Type
REMARK                         _______ _______ _______ _____ _____    ______ ____
ROOT
ATOM      1  C   UNL     1       5.253  -3.387  -1.521  0.00  0.00    +0.000 C 
ATOM      2  H   UNL     1       4.742  -3.414  -2.492  0.00  0.00    +0.000 HD
ATOM      3  H   UNL     1       5.445  -4.437  -1.266  0.00  0.00    +0.000 HD
ENDROOT
BRANCH   1   4
ATOM      4  C   UNL     1       6.586  -2.664  -1.677  0.00  0.00    +0.000 C 
ATOM      5  H   UNL     1       6.803  -2.475  -2.733  0.00  0.00    +0.000 HD
ATOM      6  H   UNL     1       6.581  -1.714  -1.132  0.00  0.00    +0.000 HD
BRANCH   4   7
ATOM      7  O   UNL     1       7.615  -3.483  -1.138  0.00  0.00    +0.000 OA
BRANCH   7   9
ATOM      8  O   UNL     1       7.609  -4.366   0.996  0.00  0.00    +0.000 OA
ATOM      9  C   UNL     1       7.765  -3.434   0.220  0.00  0.00    +0.000 C 
BRANCH   9  10
ATOM     10  C   UNL     1       8.156  -2.049   0.640  0.00  0.00    +0.000 C 
ATOM     11  H   UNL     1       9.124  -2.076   1.146  0.00  0.00    +0.000 HD
ATOM     12  H   UNL     1       7.389  -1.632   1.299  0.00  0.00    +0.000 HD
ATOM     13  H   UNL     1       8.241  -1.411  -0.243  0.00  0.00    +0.000 HD
ENDBRANCH   9  10
ENDBRANCH   7   9
ENDBRANCH   4   7
ENDBRANCH   1   4
BRANCH   1  14
ATOM     14  C   UNL     1       4.328  -2.759  -0.466  0.00  0.00    +0.000 C 
ATOM     15  H   UNL     1       4.809  -1.843  -0.101  0.00  0.00    +0.000 HD
BRANCH  14  16
ATOM     16  C   UNL     1       2.988  -2.387  -1.103  0.00  0.00    +0.000 C 
ATOM     17  H   UNL     1       2.868  -1.298  -1.116  0.00  0.00    +0.000 HD
ATOM     18  H   UNL     1       2.134  -2.797  -0.554  0.00  0.00    +0.000 HD
ATOM     19  H   UNL     1       2.934  -2.735  -2.140  0.00  0.00    +0.000 HD
ENDBRANCH  14  16
BRANCH  14  20
ATOM     20  C   UNL     1       4.092  -3.686   0.727  0.00  0.00    +0.000 C 
ATOM     21  H   UNL     1       5.019  -4.145   1.086  0.00  0.00    +0.000 HD
ATOM     22  H   UNL     1       3.410  -4.497   0.450  0.00  0.00    +0.000 HD
ATOM     23  H   UNL     1       3.636  -3.139   1.560  0.00  0.00    +0.000 HD
ENDBRANCH  14  20
ENDBRANCH   1  14
TORSDOF 7
ENDMDL
MODEL 3
REMARK VINA RESULT:    -3.784     16.369     17.455
REMARK INTER + INTRA:          -5.235
REMARK INTER:                  -5.164
REMARK INTRA:                  -0.071
REMARK UNBOUND:                -0.235
REMARK  Name = 31276
REMARK  7 active torsions:
REMARK  status: ('A' for Active; 'I' for Inactive)
REMARK    1  A    between atoms: O_1  and  C_5
REMARK    2  A    between atoms: O_1  and  C_8
REMARK    3  A    between atoms: C_3  and  C_4
REMARK    4  A    between atoms: C_3  and  C_6
REMARK    5  A    between atoms: C_3  and  C_7
REMARK    6  A    between atoms: C_4  and  C_5
REMARK    7  A    between atoms: C_8  and  C_9
REMARK                            x       y       z     vdW  Elec       q    Type
REMARK                         _______ _______ _______ _____ _____    ______ ____
ROOT
ATOM      1  C   UNL     1       5.357  -3.416  -0.042  0.00  0.00    +0.000 C 
ATOM      2  H   UNL     1       5.342  -4.476  -0.324  0.00  0.00    +0.000 HD
ATOM      3  H   UNL     1       4.714  -3.343   0.844  0.00  0.00    +0.000 HD
ENDROOT
BRANCH   1   4
ATOM      4  C   UNL     1       6.777  -3.019   0.343  0.00  0.00    +0.000 C 
ATOM      5  H   UNL     1       6.823  -2.709   1.391  0.00  0.00    +0.000 HD
ATOM      6  H   UNL     1       7.473  -3.849   0.180  0.00  0.00    +0.000 HD
BRANCH   4   7
ATOM      7  O   UNL     1       7.184  -1.929  -0.474  0.00  0.00    +0.000 OA
BRANCH   7   9
ATOM      8  O   UNL     1       9.194  -1.096  -1.248  0.00  0.00    +0.000 OA
ATOM      9  C   UNL     1       8.492  -1.553  -0.356  0.00  0.00    +0.000 C 
BRANCH   9  10
ATOM     10  C   UNL     1       8.964  -1.780   1.048  0.00  0.00    +0.000 C 
ATOM     11  H   UNL     1       9.287  -0.833   1.488  0.00  0.00    +0.000 HD
ATOM     12  H   UNL     1       9.784  -2.505   1.050  0.00  0.00    +0.000 HD
ATOM     13  H   UNL     1       8.143  -2.181   1.648  0.00  0.00    +0.000 HD
ENDBRANCH   9  10
ENDBRANCH   7   9
ENDBRANCH   4   7
ENDBRANCH   1   4
BRANCH   1  14
ATOM     14  C   UNL     1       4.765  -2.569  -1.182  0.00  0.00    +0.000 C 
ATOM     15  H   UNL     1       5.255  -1.588  -1.160  0.00  0.00    +0.000 HD
BRANCH  14  16
ATOM     16  C   UNL     1       5.059  -3.232  -2.529  0.00  0.00    +0.000 C 
ATOM     17  H   UNL     1       4.140  -3.298  -3.122  0.00  0.00    +0.000 HD
ATOM     18  H   UNL     1       5.445  -4.250  -2.421  0.00  0.00    +0.000 HD
ATOM     19  H   UNL     1       5.781  -2.646  -3.108  0.00  0.00    +0.000 HD
ENDBRANCH  14  16
BRANCH  14  20
ATOM     20  C   UNL     1       3.258  -2.358  -1.029  0.00  0.00    +0.000 C 
ATOM     21  H   UNL     1       2.718  -2.528  -1.965  0.00  0.00    +0.000 HD
ATOM     22  H   UNL     1       3.049  -1.332  -0.710  0.00  0.00    +0.000 HD
ATOM     23  H   UNL     1       2.848  -3.032  -0.269  0.00  0.00    +0.000 HD
ENDBRANCH  14  20
ENDBRANCH   1  14
TORSDOF 7
ENDMDL
MODEL 4
REMARK VINA RESULT:    -3.658     15.765     17.052
REMARK INTER + INTRA:          -5.069
REMARK INTER:                  -4.874
REMARK INTRA:                  -0.196
REMARK UNBOUND:                -0.235
REMARK  Name = 31276
REMARK  7 active torsions:
REMARK  status: ('A' for Active; 'I' for Inactive)
REMARK    1  A    between atoms: O_1  and  C_5
REMARK    2  A    between atoms: O_1  and  C_8
REMARK    3  A    between atoms: C_3  and  C_4
REMARK    4  A    between atoms: C_3  and  C_6
REMARK    5  A    between atoms: C_3  and  C_7
REMARK    6  A    between atoms: C_4  and  C_5
REMARK    7  A    between atoms: C_8  and  C_9
REMARK                            x       y       z     vdW  Elec       q    Type
REMARK                         _______ _______ _______ _____ _____    ______ ____
ROOT
ATOM      1  C   UNL     1       4.301 -13.624   2.217  0.00  0.00    +0.000 C 
ATOM      2  H   UNL     1       4.200 -14.332   1.385  0.00  0.00    +0.000 HD
ATOM      3  H   UNL     1       5.178 -13.965   2.783  0.00  0.00    +0.000 HD
ENDROOT
BRANCH   1   4
ATOM      4  C   UNL     1       4.582 -12.233   1.661  0.00  0.00    +0.000 C 
ATOM      5  H   UNL     1       3.739 -11.877   1.061  0.00  0.00    +0.000 HD
ATOM      6  H   UNL     1       4.778 -11.521   2.470  0.00  0.00    +0.000 HD
BRANCH   4   7
ATOM      7  O   UNL     1       5.737 -12.297   0.835  0.00  0.00    +0.000 OA
BRANCH   7   9
ATOM      8  O   UNL     1       6.142 -13.428  -1.138  0.00  0.00    +0.000 OA
ATOM      9  C   UNL     1       5.514 -12.613  -0.476  0.00  0.00    +0.000 C 
BRANCH   9  10
ATOM     10  C   UNL     1       4.367 -11.808  -1.008  0.00  0.00    +0.000 C 
ATOM     11  H   UNL     1       4.742 -11.018  -1.663  0.00  0.00    +0.000 HD
ATOM     12  H   UNL     1       3.799 -11.381  -0.176  0.00  0.00    +0.000 HD
ATOM     13  H   UNL     1       3.704 -12.456  -1.586  0.00  0.00    +0.000 HD
ENDBRANCH   9  10
ENDBRANCH   7   9
ENDBRANCH   4   7
ENDBRANCH   1   4
BRANCH   1  14
ATOM     14  C   UNL     1       3.051 -13.692   3.110  0.00  0.00    +0.000 C 
ATOM     15  H   UNL     1       3.373 -13.554   4.149  0.00  0.00    +0.000 HD
BRANCH  14  16
ATOM     16  C   UNL     1       2.086 -12.564   2.742  0.00  0.00    +0.000 C 
ATOM     17  H   UNL     1       2.211 -12.293   1.688  0.00  0.00    +0.000 HD
ATOM     18  H   UNL     1       2.260 -11.656   3.328  0.00  0.00    +0.000 HD
ATOM     19  H   UNL     1       1.045 -12.874   2.880  0.00  0.00    +0.000 HD
ENDBRANCH  14  16
BRANCH  14  20
ATOM     20  C   UNL     1       2.334 -15.039   3.005  0.00  0.00    +0.000 C 
ATOM     21  H   UNL     1       2.908 -15.852   3.460  0.00  0.00    +0.000 HD
ATOM     22  H   UNL     1       2.170 -15.301   1.954  0.00  0.00    +0.000 HD
ATOM     23  H   UNL     1       1.354 -14.996   3.492  0.00  0.00    +0.000 HD
ENDBRANCH  14  20
ENDBRANCH   1  14
TORSDOF 7
ENDMDL
MODEL 5
REMARK VINA RESULT:    -3.560      2.572      4.484
REMARK INTER + INTRA:          -4.939
REMARK INTER:                  -4.724
REMARK INTRA:                  -0.215
REMARK UNBOUND:                -0.235
REMARK  Name = 31276
REMARK  7 active torsions:
REMARK  status: ('A' for Active; 'I' for Inactive)
REMARK    1  A    between atoms: O_1  and  C_5
REMARK    2  A    between atoms: O_1  and  C_8
REMARK    3  A    between atoms: C_3  and  C_4
REMARK    4  A    between atoms: C_3  and  C_6
REMARK    5  A    between atoms: C_3  and  C_7
REMARK    6  A    between atoms: C_4  and  C_5
REMARK    7  A    between atoms: C_8  and  C_9
REMARK                            x       y       z     vdW  Elec       q    Type
REMARK                         _______ _______ _______ _____ _____    ______ ____
ROOT
ATOM      1  C   UNL     1       3.299  -5.982  14.938  0.00  0.00    +0.000 C 
ATOM      2  H   UNL     1       4.036  -5.471  14.305  0.00  0.00    +0.000 HD
ATOM      3  H   UNL     1       3.878  -6.702  15.531  0.00  0.00    +0.000 HD
ENDROOT
BRANCH   1   4
ATOM      4  C   UNL     1       2.656  -4.969  15.877  0.00  0.00    +0.000 C 
ATOM      5  H   UNL     1       1.675  -4.661  15.503  0.00  0.00    +0.000 HD
ATOM      6  H   UNL     1       2.545  -5.385  16.884  0.00  0.00    +0.000 HD
BRANCH   4   7
ATOM      7  O   UNL     1       3.495  -3.824  15.957  0.00  0.00    +0.000 OA
BRANCH   7   9
ATOM      8  O   UNL     1       4.119  -2.224  14.413  0.00  0.00    +0.000 OA
ATOM      9  C   UNL     1       3.265  -2.852  15.024  0.00  0.00    +0.000 C 
BRANCH   9  10
ATOM     10  C   UNL     1       1.790  -2.654  14.845  0.00  0.00    +0.000 C 
ATOM     11  H   UNL     1       1.295  -3.624  14.750  0.00  0.00    +0.000 HD
ATOM     12  H   UNL     1       1.604  -2.039  13.960  0.00  0.00    +0.000 HD
ATOM     13  H   UNL     1       1.383  -2.139  15.720  0.00  0.00    +0.000 HD
ENDBRANCH   9  10
ENDBRANCH   7   9
ENDBRANCH   4   7
ENDBRANCH   1   4
BRANCH   1  14
ATOM     14  C   UNL     1       2.290  -6.734  14.053  0.00  0.00    +0.000 C 
ATOM     15  H   UNL     1       1.945  -6.041  13.276  0.00  0.00    +0.000 HD
BRANCH  14  16
ATOM     16  C   UNL     1       2.974  -7.925  13.380  0.00  0.00    +0.000 C 
ATOM     17  H   UNL     1       3.610  -7.576  12.558  0.00  0.00    +0.000 HD
ATOM     18  H   UNL     1       2.258  -8.633  12.952  0.00  0.00    +0.000 HD
ATOM     19  H   UNL     1       3.616  -8.462  14.086  0.00  0.00    +0.000 HD
ENDBRANCH  14  16
BRANCH  14  20
ATOM     20  C   UNL     1       1.072  -7.217  14.842  0.00  0.00    +0.000 C 
ATOM     21  H   UNL     1       0.241  -7.503  14.189  0.00  0.00    +0.000 HD
ATOM     22  H   UNL     1       0.710  -6.424  15.505  0.00  0.00    +0.000 HD
ATOM     23  H   UNL     1       1.330  -8.079  15.466  0.00  0.00    +0.000 HD
ENDBRANCH  14  20
ENDBRANCH   1  14
TORSDOF 7
ENDMDL
MODEL 6
REMARK VINA RESULT:    -3.521     22.123     24.074
REMARK INTER + INTRA:          -4.888
REMARK INTER:                  -4.732
REMARK INTRA:                  -0.157
REMARK UNBOUND:                -0.235
REMARK  Name = 31276
REMARK  7 active torsions:
REMARK  status: ('A' for Active; 'I' for Inactive)
REMARK    1  A    between atoms: O_1  and  C_5
REMARK    2  A    between atoms: O_1  and  C_8
REMARK    3  A    between atoms: C_3  and  C_4
REMARK    4  A    between atoms: C_3  and  C_6
REMARK    5  A    between atoms: C_3  and  C_7
REMARK    6  A    between atoms: C_4  and  C_5
REMARK    7  A    between atoms: C_8  and  C_9
REMARK                            x       y       z     vdW  Elec       q    Type
REMARK                         _______ _______ _______ _____ _____    ______ ____
ROOT
ATOM      1  C   UNL     1       6.435  13.207  -1.303  0.00  0.00    +0.000 C 
ATOM      2  H   UNL     1       5.531  13.082  -1.912  0.00  0.00    +0.000 HD
ATOM      3  H   UNL     1       6.339  14.199  -0.843  0.00  0.00    +0.000 HD
ENDROOT
BRANCH   1   4
ATOM      4  C   UNL     1       6.448  12.152  -0.203  0.00  0.00    +0.000 C 
ATOM      5  H   UNL     1       6.955  11.243  -0.543  0.00  0.00    +0.000 HD
ATOM      6  H   UNL     1       6.947  12.530   0.696  0.00  0.00    +0.000 HD
BRANCH   4   7
ATOM      7  O   UNL     1       5.106  11.827   0.134  0.00  0.00    +0.000 OA
BRANCH   7   9
ATOM      8  O   UNL     1       3.565  12.734   1.595  0.00  0.00    +0.000 OA
ATOM      9  C   UNL     1       4.672  12.276   1.349  0.00  0.00    +0.000 C 
BRANCH   9  10
ATOM     10  C   UNL     1       5.762  12.128   2.368  0.00  0.00    +0.000 C 
ATOM     11  H   UNL     1       5.461  11.406   3.130  0.00  0.00    +0.000 HD
ATOM     12  H   UNL     1       5.979  13.099   2.821  0.00  0.00    +0.000 HD
ATOM     13  H   UNL     1       6.669  11.761   1.879  0.00  0.00    +0.000 HD
ENDBRANCH   9  10
ENDBRANCH   7   9
ENDBRANCH   4   7
ENDBRANCH   1   4
BRANCH   1  14
ATOM     14  C   UNL     1       7.678  13.174  -2.208  0.00  0.00    +0.000 C 
ATOM     15  H   UNL     1       8.310  14.030  -1.940  0.00  0.00    +0.000 HD
BRANCH  14  16
ATOM     16  C   UNL     1       8.467  11.887  -1.961  0.00  0.00    +0.000 C 
ATOM     17  H   UNL     1       8.978  11.580  -2.880  0.00  0.00    +0.000 HD
ATOM     18  H   UNL     1       7.826  11.054  -1.656  0.00  0.00    +0.000 HD
ATOM     19  H   UNL     1       9.234  12.036  -1.193  0.00  0.00    +0.000 HD
ENDBRANCH  14  16
BRANCH  14  20
ATOM     20  C   UNL     1       7.321  13.284  -3.691  0.00  0.00    +0.000 C 
ATOM     21  H   UNL     1       6.385  13.828  -3.853  0.00  0.00    +0.000 HD
ATOM     22  H   UNL     1       7.201  12.287  -4.128  0.00  0.00    +0.000 HD
ATOM     23  H   UNL     1       8.115  13.796  -4.244  0.00  0.00    +0.000 HD
ENDBRANCH  14  20
ENDBRANCH   1  14
TORSDOF 7
ENDMDL
MODEL 7
REMARK VINA RESULT:    -3.413     15.117     16.548
REMARK INTER + INTRA:          -4.746
REMARK INTER:                  -4.582
REMARK INTRA:                  -0.164
REMARK UNBOUND:                -0.235
REMARK  Name = 31276
REMARK  7 active torsions:
REMARK  status: ('A' for Active; 'I' for Inactive)
REMARK    1  A    between atoms: O_1  and  C_5
REMARK    2  A    between atoms: O_1  and  C_8
REMARK    3  A    between atoms: C_3  and  C_4
REMARK    4  A    between atoms: C_3  and  C_6
REMARK    5  A    between atoms: C_3  and  C_7
REMARK    6  A    between atoms: C_4  and  C_5
REMARK    7  A    between atoms: C_8  and  C_9
REMARK                            x       y       z     vdW  Elec       q    Type
REMARK                         _______ _______ _______ _____ _____    ______ ____
ROOT
ATOM      1  C   UNL     1      -7.186 -12.526   4.546  0.00  0.00    +0.000 C 
ATOM      2  H   UNL     1      -7.204 -11.432   4.459  0.00  0.00    +0.000 HD
ATOM      3  H   UNL     1      -8.201 -12.853   4.289  0.00  0.00    +0.000 HD
ENDROOT
BRANCH   1   4
ATOM      4  C   UNL     1      -6.209 -13.093   3.524  0.00  0.00    +0.000 C 
ATOM      5  H   UNL     1      -5.303 -13.463   4.015  0.00  0.00    +0.000 HD
ATOM      6  H   UNL     1      -6.669 -13.907   2.953  0.00  0.00    +0.000 HD
BRANCH   4   7
ATOM      7  O   UNL     1      -5.847 -12.061   2.616  0.00  0.00    +0.000 OA
BRANCH   7   9
ATOM      8  O   UNL     1      -4.846 -11.744   0.559  0.00  0.00    +0.000 OA
ATOM      9  C   UNL     1      -5.248 -12.470   1.458  0.00  0.00    +0.000 C 
BRANCH   9  10
ATOM     10  C   UNL     1      -5.145 -13.965   1.436  0.00  0.00    +0.000 C 
ATOM     11  H   UNL     1      -5.244 -14.358   2.451  0.00  0.00    +0.000 HD
ATOM     12  H   UNL     1      -4.187 -14.264   1.000  0.00  0.00    +0.000 HD
ATOM     13  H   UNL     1      -5.951 -14.377   0.823  0.00  0.00    +0.000 HD
ENDBRANCH   9  10
ENDBRANCH   7   9
ENDBRANCH   4   7
ENDBRANCH   1   4
BRANCH   1  14
ATOM     14  C   UNL     1      -6.865 -12.925   5.997  0.00  0.00    +0.000 C 
ATOM     15  H   UNL     1      -6.899 -12.016   6.610  0.00  0.00    +0.000 HD
BRANCH  14  16
ATOM     16  C   UNL     1      -7.921 -13.904   6.513  0.00  0.00    +0.000 C 
ATOM     17  H   UNL     1      -8.830 -13.360   6.792  0.00  0.00    +0.000 HD
ATOM     18  H   UNL     1      -7.588 -14.449   7.401  0.00  0.00    +0.000 HD
ATOM     19  H   UNL     1      -8.197 -14.630   5.741  0.00  0.00    +0.000 HD
ENDBRANCH  14  16
BRANCH  14  20
ATOM     20  C   UNL     1      -5.474 -13.545   6.135  0.00  0.00    +0.000 C 
ATOM     21  H   UNL     1      -4.933 -13.162   7.006  0.00  0.00    +0.000 HD
ATOM     22  H   UNL     1      -4.869 -13.324   5.249  0.00  0.00    +0.000 HD
ATOM     23  H   UNL     1      -5.542 -14.635   6.227  0.00  0.00    +0.000 HD
ENDBRANCH  14  20
ENDBRANCH   1  14
TORSDOF 7
ENDMDL
MODEL 8
REMARK VINA RESULT:    -3.370     22.070     23.125
REMARK INTER + INTRA:          -4.688
REMARK INTER:                  -4.340
REMARK INTRA:                  -0.349
REMARK UNBOUND:                -0.235
REMARK  Name = 31276
REMARK  7 active torsions:
REMARK  status: ('A' for Active; 'I' for Inactive)
REMARK    1  A    between atoms: O_1  and  C_5
REMARK    2  A    between atoms: O_1  and  C_8
REMARK    3  A    between atoms: C_3  and  C_4
REMARK    4  A    between atoms: C_3  and  C_6
REMARK    5  A    between atoms: C_3  and  C_7
REMARK    6  A    between atoms: C_4  and  C_5
REMARK    7  A    between atoms: C_8  and  C_9
REMARK                            x       y       z     vdW  Elec       q    Type
REMARK                         _______ _______ _______ _____ _____    ______ ____
ROOT
ATOM      1  C   UNL     1       5.805  11.635   1.013  0.00  0.00    +0.000 C 
ATOM      2  H   UNL     1       6.453  10.898   1.503  0.00  0.00    +0.000 HD
ATOM      3  H   UNL     1       5.229  11.067   0.271  0.00  0.00    +0.000 HD
ENDROOT
BRANCH   1   4
ATOM      4  C   UNL     1       4.844  12.220   2.041  0.00  0.00    +0.000 C 
ATOM      5  H   UNL     1       4.733  11.546   2.896  0.00  0.00    +0.000 HD
ATOM      6  H   UNL     1       5.195  13.197   2.393  0.00  0.00    +0.000 HD
BRANCH   4   7
ATOM      7  O   UNL     1       3.573  12.397   1.430  0.00  0.00    +0.000 OA
BRANCH   7   9
ATOM      8  O   UNL     1       1.628  13.154   2.420  0.00  0.00    +0.000 OA
ATOM      9  C   UNL     1       2.763  13.338   2.002  0.00  0.00    +0.000 C 
BRANCH   9  10
ATOM     10  C   UNL     1       3.471  14.659   2.051  0.00  0.00    +0.000 C 
ATOM     11  H   UNL     1       2.922  15.349   2.697  0.00  0.00    +0.000 HD
ATOM     12  H   UNL     1       3.562  15.067   1.040  0.00  0.00    +0.000 HD
ATOM     13  H   UNL     1       4.474  14.519   2.463  0.00  0.00    +0.000 HD
ENDBRANCH   9  10
ENDBRANCH   7   9
ENDBRANCH   4   7
ENDBRANCH   1   4
BRANCH   1  14
ATOM     14  C   UNL     1       6.667  12.691   0.301  0.00  0.00    +0.000 C 
ATOM     15  H   UNL     1       7.604  12.208  -0.005  0.00  0.00    +0.000 HD
BRANCH  14  16
ATOM     16  C   UNL     1       5.946  13.195  -0.951  0.00  0.00    +0.000 C 
ATOM     17  H   UNL     1       5.947  12.417  -1.722  0.00  0.00    +0.000 HD
ATOM     18  H   UNL     1       6.426  14.077  -1.384  0.00  0.00    +0.000 HD
ATOM     19  H   UNL     1       4.901  13.438  -0.732  0.00  0.00    +0.000 HD
ENDBRANCH  14  16
BRANCH  14  20
ATOM     20  C   UNL     1       7.010  13.872   1.210  0.00  0.00    +0.000 C 
ATOM     21  H   UNL     1       8.007  13.781   1.652  0.00  0.00    +0.000 HD
ATOM     22  H   UNL     1       6.291  13.939   2.033  0.00  0.00    +0.000 HD
ATOM     23  H   UNL     1       6.967  14.815   0.655  0.00  0.00    +0.000 HD
ENDBRANCH  14  20
ENDBRANCH   1  14
TORSDOF 7
ENDMDL
MODEL 9
REMARK VINA RESULT:    -3.343     25.023     26.768
REMARK INTER + INTRA:          -4.653
REMARK INTER:                  -4.477
REMARK INTRA:                  -0.176
REMARK UNBOUND:                -0.235
REMARK  Name = 31276
REMARK  7 active torsions:
REMARK  status: ('A' for Active; 'I' for Inactive)
REMARK    1  A    between atoms: O_1  and  C_5
REMARK    2  A    between atoms: O_1  and  C_8
REMARK    3  A    between atoms: C_3  and  C_4
REMARK    4  A    between atoms: C_3  and  C_6
REMARK    5  A    between atoms: C_3  and  C_7
REMARK    6  A    between atoms: C_4  and  C_5
REMARK    7  A    between atoms: C_8  and  C_9
REMARK                            x       y       z     vdW  Elec       q    Type
REMARK                         _______ _______ _______ _____ _____    ______ ____
ROOT
ATOM      1  C   UNL     1      17.466   9.781   0.441  0.00  0.00    +0.000 C 
ATOM      2  H   UNL     1      17.526  10.847   0.695  0.00  0.00    +0.000 HD
ATOM      3  H   UNL     1      17.321   9.751  -0.647  0.00  0.00    +0.000 HD
ENDROOT
BRANCH   1   4
ATOM      4  C   UNL     1      18.790   9.108   0.783  0.00  0.00    +0.000 C 
ATOM      5  H   UNL     1      19.095   9.350   1.806  0.00  0.00    +0.000 HD
ATOM      6  H   UNL     1      18.716   8.021   0.674  0.00  0.00    +0.000 HD
BRANCH   4   7
ATOM      7  O   UNL     1      19.787   9.580  -0.115  0.00  0.00    +0.000 OA
BRANCH   7   9
ATOM      8  O   UNL     1      20.992   8.751  -1.902  0.00  0.00    +0.000 OA
ATOM      9  C   UNL     1      20.470   8.618  -0.804  0.00  0.00    +0.000 C 
BRANCH   9  10
ATOM     10  C   UNL     1      20.496   7.345  -0.013  0.00  0.00    +0.000 C 
ATOM     11  H   UNL     1      19.810   7.421   0.834  0.00  0.00    +0.000 HD
ATOM     12  H   UNL     1      21.515   7.145   0.334  0.00  0.00    +0.000 HD
ATOM     13  H   UNL     1      20.176   6.515  -0.648  0.00  0.00    +0.000 HD
ENDBRANCH   9  10
ENDBRANCH   7   9
ENDBRANCH   4   7
ENDBRANCH   1   4
BRANCH   1  14
ATOM     14  C   UNL     1      16.251   9.150   1.142  0.00  0.00    +0.000 C 
ATOM     15  H   UNL     1      15.710   8.550   0.400  0.00  0.00    +0.000 HD
BRANCH  14  16
ATOM     16  C   UNL     1      16.722   8.227   2.268  0.00  0.00    +0.000 C 
ATOM     17  H   UNL     1      16.347   7.211   2.101  0.00  0.00    +0.000 HD
ATOM     18  H   UNL     1      16.360   8.545   3.250  0.00  0.00    +0.000 HD
ATOM     19  H   UNL     1      17.816   8.171   2.301  0.00  0.00    +0.000 HD
ENDBRANCH  14  16
BRANCH  14  20
ATOM     20  C   UNL     1      15.292  10.200   1.703  0.00  0.00    +0.000 C 
ATOM     21  H   UNL     1      14.276   9.813   1.824  0.00  0.00    +0.000 HD
ATOM     22  H   UNL     1      15.237  11.062   1.030  0.00  0.00    +0.000 HD
ATOM     23  H   UNL     1      15.639  10.562   2.677  0.00  0.00    +0.000 HD
ENDBRANCH  14  20
ENDBRANCH   1  14
TORSDOF 7
ENDMDL
MODEL 10
REMARK VINA RESULT:    -3.330     24.363     25.764
REMARK INTER + INTRA:          -4.635
REMARK INTER:                  -4.401
REMARK INTRA:                  -0.235
REMARK UNBOUND:                -0.235
REMARK  Name = 31276
REMARK  7 active torsions:
REMARK  status: ('A' for Active; 'I' for Inactive)
REMARK    1  A    between atoms: O_1  and  C_5
REMARK    2  A    between atoms: O_1  and  C_8
REMARK    3  A    between atoms: C_3  and  C_4
REMARK    4  A    between atoms: C_3  and  C_6
REMARK    5  A    between atoms: C_3  and  C_7
REMARK    6  A    between atoms: C_4  and  C_5
REMARK    7  A    between atoms: C_8  and  C_9
REMARK                            x       y       z     vdW  Elec       q    Type
REMARK                         _______ _______ _______ _____ _____    ______ ____
ROOT
ATOM      1  C   UNL     1      17.585   7.735   2.643  0.00  0.00    +0.000 C 
ATOM      2  H   UNL     1      17.382   6.683   2.408  0.00  0.00    +0.000 HD
ATOM      3  H   UNL     1      17.619   7.786   3.739  0.00  0.00    +0.000 HD
ENDROOT
BRANCH   1   4
ATOM      4  C   UNL     1      18.952   8.118   2.088  0.00  0.00    +0.000 C 
ATOM      5  H   UNL     1      18.848   8.797   1.235  0.00  0.00    +0.000 HD
ATOM      6  H   UNL     1      19.567   8.595   2.858  0.00  0.00    +0.000 HD
BRANCH   4   7
ATOM      7  O   UNL     1      19.615   6.938   1.654  0.00  0.00    +0.000 OA
BRANCH   7   9
ATOM      8  O   UNL     1      21.807   6.821   0.936  0.00  0.00    +0.000 OA
ATOM      9  C   UNL     1      20.634   7.122   0.762  0.00  0.00    +0.000 C 
BRANCH   9  10
ATOM     10  C   UNL     1      20.109   7.756  -0.491  0.00  0.00    +0.000 C 
ATOM     11  H   UNL     1      19.099   8.137  -0.318  0.00  0.00    +0.000 HD
ATOM     12  H   UNL     1      20.111   7.025  -1.304  0.00  0.00    +0.000 HD
ATOM     13  H   UNL     1      20.753   8.593  -0.772  0.00  0.00    +0.000 HD
ENDBRANCH   9  10
ENDBRANCH   7   9
ENDBRANCH   4   7
ENDBRANCH   1   4
BRANCH   1  14
ATOM     14  C   UNL     1      16.436   8.614   2.120  0.00  0.00    +0.000 C 
ATOM     15  H   UNL     1      15.567   7.966   1.955  0.00  0.00    +0.000 HD
BRANCH  14  16
ATOM     16  C   UNL     1      16.069   9.668   3.167  0.00  0.00    +0.000 C 
ATOM     17  H   UNL     1      15.329   9.261   3.864  0.00  0.00    +0.000 HD
ATOM     18  H   UNL     1      15.630  10.566   2.721  0.00  0.00    +0.000 HD
ATOM     19  H   UNL     1      16.946   9.963   3.754  0.00  0.00    +0.000 HD
ENDBRANCH  14  16
BRANCH  14  20
ATOM     20  C   UNL     1      16.783   9.299   0.798  0.00  0.00    +0.000 C 
ATOM     21  H   UNL     1      16.109  10.131   0.571  0.00  0.00    +0.000 HD
ATOM     22  H   UNL     1      16.714   8.585  -0.030  0.00  0.00    +0.000 HD
ATOM     23  H   UNL     1      17.808   9.685   0.817  0.00  0.00    +0.000 HD
ENDBRANCH  14  20
ENDBRANCH   1  14
TORSDOF 7
ENDMDL
