MODEL 1
REMARK VINA RESULT:    -3.633      0.000      0.000
REMARK INTER + INTRA:          -4.164
REMARK INTER:                  -4.164
REMARK INTRA:                   0.000
REMARK UNBOUND:                 0.000
REMARK  Name = 6590
REMARK  4 active torsions:
REMARK  status: ('A' for Active; 'I' for Inactive)
REMARK    1  A    between atoms: O_1  and  C_6
REMARK    2  A    between atoms: C_3  and  C_4
REMARK    3  A    between atoms: C_3  and  C_5
REMARK    4  A    between atoms: C_3  and  C_6
REMARK                            x       y       z     vdW  Elec       q    Type
REMARK                         _______ _______ _______ _____ _____    ______ ____
ROOT
ATOM      1  C   UNL     1       3.021 -11.601   2.108  0.00  0.00    +0.000 C 
ATOM      2  H   UNL     1       3.196 -10.832   2.871  0.00  0.00    +0.000 HD
ENDROOT
BRANCH   1   3
ATOM      3  C   UNL     1       2.452 -10.952   0.853  0.00  0.00    +0.000 C 
ATOM      4  H   UNL     1       1.889 -10.046   1.101  0.00  0.00    +0.000 HD
ATOM      5  H   UNL     1       1.783 -11.636   0.320  0.00  0.00    +0.000 HD
ATOM      6  H   UNL     1       3.253 -10.673   0.161  0.00  0.00    +0.000 HD
ENDBRANCH   1   3
BRANCH   1   7
ATOM      7  C   UNL     1       2.039 -12.613   2.693  0.00  0.00    +0.000 C 
ATOM      8  H   UNL     1       1.043 -12.507   2.250  0.00  0.00    +0.000 HD
ATOM      9  H   UNL     1       1.945 -12.483   3.777  0.00  0.00    +0.000 HD
ATOM     10  H   UNL     1       2.377 -13.637   2.502  0.00  0.00    +0.000 HD
ENDBRANCH   1   7
BRANCH   1  12
ATOM     11  O   UNL     1       4.775 -12.504   0.671  0.00  0.00    +0.000 OA
ATOM     12  C   UNL     1       4.346 -12.263   1.789  0.00  0.00    +0.000 C 
BRANCH  12  13
ATOM     13  O   UNL     1       5.021 -12.556   2.931  0.00  0.00    +0.000 OA
ATOM     14  H   UNL     1       5.577 -11.806   3.229  0.00  0.00    +0.000 HD
ENDBRANCH  12  13
ENDBRANCH   1  12
TORSDOF 4
ENDMDL
MODEL 2
REMARK VINA RESULT:    -3.473      8.580      9.255
REMARK INTER + INTRA:          -3.981
REMARK INTER:                  -3.981
REMARK INTRA:                   0.000
REMARK UNBOUND:                 0.000
REMARK  Name = 6590
REMARK  4 active torsions:
REMARK  status: ('A' for Active; 'I' for Inactive)
REMARK    1  A    between atoms: O_1  and  C_6
REMARK    2  A    between atoms: C_3  and  C_4
REMARK    3  A    between atoms: C_3  and  C_5
REMARK    4  A    between atoms: C_3  and  C_6
REMARK                            x       y       z     vdW  Elec       q    Type
REMARK                         _______ _______ _______ _____ _____    ______ ____
ROOT
ATOM      1  C   UNL     1       4.652  -2.706  -1.023  0.00  0.00    +0.000 C 
ATOM      2  H   UNL     1       5.144  -1.778  -0.707  0.00  0.00    +0.000 HD
ENDROOT
BRANCH   1   3
ATOM      3  C   UNL     1       5.038  -3.021  -2.463  0.00  0.00    +0.000 C 
ATOM      4  H   UNL     1       4.340  -3.736  -2.909  0.00  0.00    +0.000 HD
ATOM      5  H   UNL     1       6.046  -3.446  -2.520  0.00  0.00    +0.000 HD
ATOM      6  H   UNL     1       5.031  -2.114  -3.076  0.00  0.00    +0.000 HD
ENDBRANCH   1   3
BRANCH   1   7
ATOM      7  C   UNL     1       3.146  -2.493  -0.897  0.00  0.00    +0.000 C 
ATOM      8  H   UNL     1       2.609  -2.903  -1.759  0.00  0.00    +0.000 HD
ATOM      9  H   UNL     1       2.908  -1.426  -0.824  0.00  0.00    +0.000 HD
ATOM     10  H   UNL     1       2.757  -2.989  -0.001  0.00  0.00    +0.000 HD
ENDBRANCH   1   7
BRANCH   1  12
ATOM     11  O   UNL     1       4.641  -4.095   0.983  0.00  0.00    +0.000 OA
ATOM     12  C   UNL     1       5.113  -3.824  -0.111  0.00  0.00    +0.000 C 
BRANCH  12  13
ATOM     13  O   UNL     1       6.138  -4.511  -0.678  0.00  0.00    +0.000 OA
ATOM     14  H   UNL     1       6.989  -4.033  -0.593  0.00  0.00    +0.000 HD
ENDBRANCH  12  13
ENDBRANCH   1  12
TORSDOF 4
ENDMDL
MODEL 3
REMARK VINA RESULT:    -3.394     24.416     24.913
REMARK INTER + INTRA:          -3.890
REMARK INTER:                  -3.890
REMARK INTRA:                   0.000
REMARK UNBOUND:                 0.000
REMARK  Name = 6590
REMARK  4 active torsions:
REMARK  status: ('A' for Active; 'I' for Inactive)
REMARK    1  A    between atoms: O_1  and  C_6
REMARK    2  A    between atoms: C_3  and  C_4
REMARK    3  A    between atoms: C_3  and  C_5
REMARK    4  A    between atoms: C_3  and  C_6
REMARK                            x       y       z     vdW  Elec       q    Type
REMARK                         _______ _______ _______ _____ _____    ______ ____
ROOT
ATOM      1  C   UNL     1     -18.623  -2.140   6.924  0.00  0.00    +0.000 C 
ATOM      2  H   UNL     1     -18.403  -3.048   7.501  0.00  0.00    +0.000 HD
ENDROOT
BRANCH   1   3
ATOM      3  C   UNL     1     -20.044  -1.680   7.222  0.00  0.00    +0.000 C 
ATOM      4  H   UNL     1     -20.778  -2.376   6.802  0.00  0.00    +0.000 HD
ATOM      5  H   UNL     1     -20.236  -0.686   6.804  0.00  0.00    +0.000 HD
ATOM      6  H   UNL     1     -20.216  -1.619   8.302  0.00  0.00    +0.000 HD
ENDBRANCH   1   3
BRANCH   1   7
ATOM      7  C   UNL     1     -18.459  -2.484   5.446  0.00  0.00    +0.000 C 
ATOM      8  H   UNL     1     -18.999  -3.400   5.185  0.00  0.00    +0.000 HD
ATOM      9  H   UNL     1     -17.403  -2.629   5.194  0.00  0.00    +0.000 HD
ATOM     10  H   UNL     1     -18.852  -1.680   4.814  0.00  0.00    +0.000 HD
ENDBRANCH   1   7
BRANCH   1  12
ATOM     11  O   UNL     1     -17.014  -1.032   8.387  0.00  0.00    +0.000 OA
ATOM     12  C   UNL     1     -17.637  -1.066   7.336  0.00  0.00    +0.000 C 
BRANCH  12  13
ATOM     13  O   UNL     1     -17.522  -0.125   6.364  0.00  0.00    +0.000 OA
ATOM     14  H   UNL     1     -17.319  -0.524   5.492  0.00  0.00    +0.000 HD
ENDBRANCH  12  13
ENDBRANCH   1  12
TORSDOF 4
ENDMDL
MODEL 4
REMARK VINA RESULT:    -3.275     24.675     25.159
REMARK INTER + INTRA:          -3.754
REMARK INTER:                  -3.754
REMARK INTRA:                   0.000
REMARK UNBOUND:                 0.000
REMARK  Name = 6590
REMARK  4 active torsions:
REMARK  status: ('A' for Active; 'I' for Inactive)
REMARK    1  A    between atoms: O_1  and  C_6
REMARK    2  A    between atoms: C_3  and  C_4
REMARK    3  A    between atoms: C_3  and  C_5
REMARK    4  A    between atoms: C_3  and  C_6
REMARK                            x       y       z     vdW  Elec       q    Type
REMARK                         _______ _______ _______ _____ _____    ______ ____
ROOT
ATOM      1  C   UNL     1     -19.213  -1.353   7.076  0.00  0.00    +0.000 C 
ATOM      2  H   UNL     1     -19.742  -0.499   6.633  0.00  0.00    +0.000 HD
ENDROOT
BRANCH   1   3
ATOM      3  C   UNL     1     -19.283  -2.542   6.126  0.00  0.00    +0.000 C 
ATOM      4  H   UNL     1     -18.559  -2.438   5.312  0.00  0.00    +0.000 HD
ATOM      5  H   UNL     1     -20.282  -2.641   5.686  0.00  0.00    +0.000 HD
ATOM      6  H   UNL     1     -19.065  -3.477   6.654  0.00  0.00    +0.000 HD
ENDBRANCH   1   3
BRANCH   1   7
ATOM      7  C   UNL     1     -19.890  -1.675   8.405  0.00  0.00    +0.000 C 
ATOM      8  H   UNL     1     -19.423  -2.536   8.895  0.00  0.00    +0.000 HD
ATOM      9  H   UNL     1     -20.951  -1.902   8.257  0.00  0.00    +0.000 HD
ATOM     10  H   UNL     1     -19.817  -0.825   9.093  0.00  0.00    +0.000 HD
ENDBRANCH   1   7
BRANCH   1  12
ATOM     11  O   UNL     1     -17.134  -1.096   8.329  0.00  0.00    +0.000 OA
ATOM     12  C   UNL     1     -17.767  -0.954   7.293  0.00  0.00    +0.000 C 
BRANCH  12  13
ATOM     13  O   UNL     1     -17.246  -0.413   6.162  0.00  0.00    +0.000 OA
ATOM     14  H   UNL     1     -16.268  -0.483   6.141  0.00  0.00    +0.000 HD
ENDBRANCH  12  13
ENDBRANCH   1  12
TORSDOF 4
ENDMDL
MODEL 5
REMARK VINA RESULT:    -3.223      8.901      9.550
REMARK INTER + INTRA:          -3.695
REMARK INTER:                  -3.695
REMARK INTRA:                   0.000
REMARK UNBOUND:                 0.000
REMARK  Name = 6590
REMARK  4 active torsions:
REMARK  status: ('A' for Active; 'I' for Inactive)
REMARK    1  A    between atoms: O_1  and  C_6
REMARK    2  A    between atoms: C_3  and  C_4
REMARK    3  A    between atoms: C_3  and  C_5
REMARK    4  A    between atoms: C_3  and  C_6
REMARK                            x       y       z     vdW  Elec       q    Type
REMARK                         _______ _______ _______ _____ _____    ______ ____
ROOT
ATOM      1  C   UNL     1       4.924  -3.445  -0.175  0.00  0.00    +0.000 C 
ATOM      2  H   UNL     1       5.003  -4.458  -0.591  0.00  0.00    +0.000 HD
ENDROOT
BRANCH   1   3
ATOM      3  C   UNL     1       4.025  -3.469   1.054  0.00  0.00    +0.000 C 
ATOM      4  H   UNL     1       3.097  -2.917   0.872  0.00  0.00    +0.000 HD
ATOM      5  H   UNL     1       4.524  -3.023   1.921  0.00  0.00    +0.000 HD
ATOM      6  H   UNL     1       3.759  -4.497   1.323  0.00  0.00    +0.000 HD
ENDBRANCH   1   3
BRANCH   1   7
ATOM      7  C   UNL     1       4.340  -2.547  -1.262  0.00  0.00    +0.000 C 
ATOM      8  H   UNL     1       4.920  -2.610  -2.189  0.00  0.00    +0.000 HD
ATOM      9  H   UNL     1       4.328  -1.501  -0.938  0.00  0.00    +0.000 HD
ATOM     10  H   UNL     1       3.311  -2.842  -1.498  0.00  0.00    +0.000 HD
ENDBRANCH   1   7
BRANCH   1  12
ATOM     11  O   UNL     1       6.909  -2.028  -0.264  0.00  0.00    +0.000 OA
ATOM     12  C   UNL     1       6.313  -2.982   0.213  0.00  0.00    +0.000 C 
BRANCH  12  13
ATOM     13  O   UNL     1       6.826  -3.775   1.190  0.00  0.00    +0.000 OA
ATOM     14  H   UNL     1       6.217  -4.508   1.421  0.00  0.00    +0.000 HD
ENDBRANCH  12  13
ENDBRANCH   1  12
TORSDOF 4
ENDMDL
MODEL 6
REMARK VINA RESULT:    -3.164     12.066     12.908
REMARK INTER + INTRA:          -3.626
REMARK INTER:                  -3.626
REMARK INTRA:                   0.000
REMARK UNBOUND:                 0.000
REMARK  Name = 6590
REMARK  4 active torsions:
REMARK  status: ('A' for Active; 'I' for Inactive)
REMARK    1  A    between atoms: O_1  and  C_6
REMARK    2  A    between atoms: C_3  and  C_4
REMARK    3  A    between atoms: C_3  and  C_5
REMARK    4  A    between atoms: C_3  and  C_6
REMARK                            x       y       z     vdW  Elec       q    Type
REMARK                         _______ _______ _______ _____ _____    ______ ____
ROOT
ATOM      1  C   UNL     1       8.922 -13.684 -10.322  0.00  0.00    +0.000 C 
ATOM      2  H   UNL     1       9.076 -14.766 -10.225  0.00  0.00    +0.000 HD
ENDROOT
BRANCH   1   3
ATOM      3  C   UNL     1       7.877 -13.414 -11.397  0.00  0.00    +0.000 C 
ATOM      4  H   UNL     1       7.459 -12.407 -11.294  0.00  0.00    +0.000 HD
ATOM      5  H   UNL     1       7.053 -14.134 -11.339  0.00  0.00    +0.000 HD
ATOM      6  H   UNL     1       8.315 -13.498 -12.397  0.00  0.00    +0.000 HD
ENDBRANCH   1   3
BRANCH   1   7
ATOM      7  C   UNL     1      10.264 -13.060 -10.696  0.00  0.00    +0.000 C 
ATOM      8  H   UNL     1      10.687 -12.490  -9.862  0.00  0.00    +0.000 HD
ATOM      9  H   UNL     1      10.154 -12.383 -11.550  0.00  0.00    +0.000 HD
ATOM     10  H   UNL     1      10.990 -13.834 -10.967  0.00  0.00    +0.000 HD
ENDBRANCH   1   7
BRANCH   1  12
ATOM     11  O   UNL     1       9.082 -12.456  -8.219  0.00  0.00    +0.000 OA
ATOM     12  C   UNL     1       8.437 -13.153  -8.988  0.00  0.00    +0.000 C 
BRANCH  12  13
ATOM     13  O   UNL     1       7.160 -13.549  -8.752  0.00  0.00    +0.000 OA
ATOM     14  H   UNL     1       7.116 -14.483  -8.455  0.00  0.00    +0.000 HD
ENDBRANCH  12  13
ENDBRANCH   1  12
TORSDOF 4
ENDMDL
MODEL 7
REMARK VINA RESULT:    -3.134      8.756      9.485
REMARK INTER + INTRA:          -3.593
REMARK INTER:                  -3.593
REMARK INTRA:                   0.000
REMARK UNBOUND:                 0.000
REMARK  Name = 6590
REMARK  4 active torsions:
REMARK  status: ('A' for Active; 'I' for Inactive)
REMARK    1  A    between atoms: O_1  and  C_6
REMARK    2  A    between atoms: C_3  and  C_4
REMARK    3  A    between atoms: C_3  and  C_5
REMARK    4  A    between atoms: C_3  and  C_6
REMARK                            x       y       z     vdW  Elec       q    Type
REMARK                         _______ _______ _______ _____ _____    ______ ____
ROOT
ATOM      1  C   UNL     1       4.576  -3.190  -0.769  0.00  0.00    +0.000 C 
ATOM      2  H   UNL     1       4.401  -4.145  -1.282  0.00  0.00    +0.000 HD
ENDROOT
BRANCH   1   3
ATOM      3  C   UNL     1       3.388  -2.265  -0.998  0.00  0.00    +0.000 C 
ATOM      4  H   UNL     1       3.600  -1.543  -1.793  0.00  0.00    +0.000 HD
ATOM      5  H   UNL     1       3.136  -1.709  -0.089  0.00  0.00    +0.000 HD
ATOM      6  H   UNL     1       2.499  -2.835  -1.289  0.00  0.00    +0.000 HD
ENDBRANCH   1   3
BRANCH   1   7
ATOM      7  C   UNL     1       5.855  -2.588  -1.343  0.00  0.00    +0.000 C 
ATOM      8  H   UNL     1       6.038  -1.583  -0.949  0.00  0.00    +0.000 HD
ATOM      9  H   UNL     1       5.798  -2.519  -2.435  0.00  0.00    +0.000 HD
ATOM     10  H   UNL     1       6.724  -3.205  -1.086  0.00  0.00    +0.000 HD
ENDBRANCH   1   7
BRANCH   1  12
ATOM     11  O   UNL     1       5.667  -4.059   1.234  0.00  0.00    +0.000 OA
ATOM     12  C   UNL     1       4.733  -3.469   0.712  0.00  0.00    +0.000 C 
BRANCH  12  13
ATOM     13  O   UNL     1       3.683  -2.961   1.407  0.00  0.00    +0.000 OA
ATOM     14  H   UNL     1       3.978  -2.417   2.168  0.00  0.00    +0.000 HD
ENDBRANCH  12  13
ENDBRANCH   1  12
TORSDOF 4
ENDMDL
MODEL 8
REMARK VINA RESULT:    -3.104     28.798     29.217
REMARK INTER + INTRA:          -3.558
REMARK INTER:                  -3.558
REMARK INTRA:                   0.000
REMARK UNBOUND:                 0.000
REMARK  Name = 6590
REMARK  4 active torsions:
REMARK  status: ('A' for Active; 'I' for Inactive)
REMARK    1  A    between atoms: O_1  and  C_6
REMARK    2  A    between atoms: C_3  and  C_4
REMARK    3  A    between atoms: C_3  and  C_5
REMARK    4  A    between atoms: C_3  and  C_6
REMARK                            x       y       z     vdW  Elec       q    Type
REMARK                         _______ _______ _______ _____ _____    ______ ____
ROOT
ATOM      1  C   UNL     1      -9.108   8.259  19.293  0.00  0.00    +0.000 C 
ATOM      2  H   UNL     1     -10.132   8.060  19.634  0.00  0.00    +0.000 HD
ENDROOT
BRANCH   1   3
ATOM      3  C   UNL     1      -8.167   7.209  19.871  0.00  0.00    +0.000 C 
ATOM      4  H   UNL     1      -8.728   6.359  20.273  0.00  0.00    +0.000 HD
ATOM      5  H   UNL     1      -7.552   7.626  20.676  0.00  0.00    +0.000 HD
ATOM      6  H   UNL     1      -7.486   6.830  19.102  0.00  0.00    +0.000 HD
ENDBRANCH   1   3
BRANCH   1   7
ATOM      7  C   UNL     1      -8.727   9.657  19.773  0.00  0.00    +0.000 C 
ATOM      8  H   UNL     1      -8.889  10.407  18.992  0.00  0.00    +0.000 HD
ATOM      9  H   UNL     1      -7.672   9.694  20.066  0.00  0.00    +0.000 HD
ATOM     10  H   UNL     1      -9.331   9.948  20.639  0.00  0.00    +0.000 HD
ENDBRANCH   1   7
BRANCH   1  12
ATOM     11  O   UNL     1      -8.361   8.836  17.042  0.00  0.00    +0.000 OA
ATOM     12  C   UNL     1      -9.089   8.189  17.780  0.00  0.00    +0.000 C 
BRANCH  12  13
ATOM     13  O   UNL     1     -10.001   7.286  17.332  0.00  0.00    +0.000 OA
ATOM     14  H   UNL     1     -10.178   6.587  17.996  0.00  0.00    +0.000 HD
ENDBRANCH  12  13
ENDBRANCH   1  12
TORSDOF 4
ENDMDL
MODEL 9
REMARK VINA RESULT:    -2.995     18.074     19.022
REMARK INTER + INTRA:          -3.432
REMARK INTER:                  -3.432
REMARK INTRA:                   0.000
REMARK UNBOUND:                 0.000
REMARK  Name = 6590
REMARK  4 active torsions:
REMARK  status: ('A' for Active; 'I' for Inactive)
REMARK    1  A    between atoms: O_1  and  C_6
REMARK    2  A    between atoms: C_3  and  C_4
REMARK    3  A    between atoms: C_3  and  C_5
REMARK    4  A    between atoms: C_3  and  C_6
REMARK                            x       y       z     vdW  Elec       q    Type
REMARK                         _______ _______ _______ _____ _____    ______ ____
ROOT
ATOM      1  C   UNL     1     -13.450 -15.278   8.786  0.00  0.00    +0.000 C 
ATOM      2  H   UNL     1     -13.416 -16.200   9.380  0.00  0.00    +0.000 HD
ENDROOT
BRANCH   1   3
ATOM      3  C   UNL     1     -14.444 -15.445   7.644  0.00  0.00    +0.000 C 
ATOM      4  H   UNL     1     -14.004 -16.019   6.822  0.00  0.00    +0.000 HD
ATOM      5  H   UNL     1     -14.766 -14.474   7.252  0.00  0.00    +0.000 HD
ATOM      6  H   UNL     1     -15.342 -15.974   7.983  0.00  0.00    +0.000 HD
ENDBRANCH   1   3
BRANCH   1   7
ATOM      7  C   UNL     1     -12.043 -15.023   8.252  0.00  0.00    +0.000 C 
ATOM      8  H   UNL     1     -11.278 -15.401   8.939  0.00  0.00    +0.000 HD
ATOM      9  H   UNL     1     -11.869 -13.951   8.106  0.00  0.00    +0.000 HD
ATOM     10  H   UNL     1     -11.896 -15.525   7.289  0.00  0.00    +0.000 HD
ENDBRANCH   1   7
BRANCH   1  12
ATOM     11  O   UNL     1     -14.747 -13.314   9.430  0.00  0.00    +0.000 OA
ATOM     12  C   UNL     1     -13.892 -14.146   9.691  0.00  0.00    +0.000 C 
BRANCH  12  13
ATOM     13  O   UNL     1     -13.207 -14.178  10.864  0.00  0.00    +0.000 OA
ATOM     14  H   UNL     1     -12.891 -13.288  11.127  0.00  0.00    +0.000 HD
ENDBRANCH  12  13
ENDBRANCH   1  12
TORSDOF 4
ENDMDL
MODEL 10
REMARK VINA RESULT:    -2.965      9.928     10.543
REMARK INTER + INTRA:          -3.398
REMARK INTER:                  -3.398
REMARK INTRA:                   0.000
REMARK UNBOUND:                 0.000
REMARK  Name = 6590
REMARK  4 active torsions:
REMARK  status: ('A' for Active; 'I' for Inactive)
REMARK    1  A    between atoms: O_1  and  C_6
REMARK    2  A    between atoms: C_3  and  C_4
REMARK    3  A    between atoms: C_3  and  C_5
REMARK    4  A    between atoms: C_3  and  C_6
REMARK                            x       y       z     vdW  Elec       q    Type
REMARK                         _______ _______ _______ _____ _____    ______ ____
ROOT
ATOM      1  C   UNL     1       8.423  -2.615  -0.918  0.00  0.00    +0.000 C 
ATOM      2  H   UNL     1       8.115  -2.621  -1.972  0.00  0.00    +0.000 HD
ENDROOT
BRANCH   1   3
ATOM      3  C   UNL     1       7.687  -1.503  -0.180  0.00  0.00    +0.000 C 
ATOM      4  H   UNL     1       7.575  -1.745   0.882  0.00  0.00    +0.000 HD
ATOM      5  H   UNL     1       6.690  -1.339  -0.602  0.00  0.00    +0.000 HD
ATOM      6  H   UNL     1       8.234  -0.557  -0.255  0.00  0.00    +0.000 HD
ENDBRANCH   1   3
BRANCH   1   7
ATOM      7  C   UNL     1       9.932  -2.389  -0.881  0.00  0.00    +0.000 C 
ATOM      8  H   UNL     1      10.301  -1.987  -1.831  0.00  0.00    +0.000 HD
ATOM      9  H   UNL     1      10.462  -3.327  -0.681  0.00  0.00    +0.000 HD
ATOM     10  H   UNL     1      10.199  -1.674  -0.095  0.00  0.00    +0.000 HD
ENDBRANCH   1   7
BRANCH   1  12
ATOM     11  O   UNL     1       7.436  -4.132   0.719  0.00  0.00    +0.000 OA
ATOM     12  C   UNL     1       8.067  -3.957  -0.312  0.00  0.00    +0.000 C 
BRANCH  12  13
ATOM     13  O   UNL     1       8.541  -4.970  -1.084  0.00  0.00    +0.000 OA
ATOM     14  H   UNL     1       7.918  -5.203  -1.804  0.00  0.00    +0.000 HD
ENDBRANCH  12  13
ENDBRANCH   1  12
TORSDOF 4
ENDMDL
