MODEL 1
REMARK VINA RESULT:    -5.083      0.000      0.000
REMARK INTER + INTRA:          -7.286
REMARK INTER:                  -7.015
REMARK INTRA:                  -0.271
REMARK UNBOUND:                -0.420
REMARK  Name = 6549
REMARK  8 active torsions:
REMARK  status: ('A' for Active; 'I' for Inactive)
REMARK    1  A    between atoms: O_1  and  C_2
REMARK    2  A    between atoms: C_2  and  C_3
REMARK    3  A    between atoms: C_2  and  C_5
REMARK    4  A    between atoms: C_2  and  C_6
REMARK    5  A    between atoms: C_3  and  C_4
REMARK    6  A    between atoms: C_4  and  C_7
REMARK    7  A    between atoms: C_8  and  C_9
REMARK    8  A    between atoms: C_8  and  C_10
REMARK                            x       y       z     vdW  Elec       q    Type
REMARK                         _______ _______ _______ _____ _____    ______ ____
ROOT
ATOM      1  C   UNL     1       1.226  -5.414  16.522  0.00  0.00    +0.000 C 
ATOM      2  H   UNL     1       1.923  -6.207  16.828  0.00  0.00    +0.000 HD
ATOM      3  H   UNL     1       1.322  -4.646  17.303  0.00  0.00    +0.000 HD
ENDROOT
BRANCH   1   4
ATOM      4  C   UNL     1      -0.203  -5.966  16.517  0.00  0.00    +0.000 C 
ATOM      5  H   UNL     1      -0.785  -5.565  15.680  0.00  0.00    +0.000 HD
ATOM      6  H   UNL     1      -0.735  -5.646  17.421  0.00  0.00    +0.000 HD
BRANCH   4   7
ATOM      7  C   UNL     1      -0.201  -7.469  16.509  0.00  0.00    +0.000 C 
ATOM      8  C   UNL     1      -0.166  -8.296  17.572  0.00  0.00    +0.000 C 
ATOM      9  H   UNL     1      -0.243  -7.921  15.519  0.00  0.00    +0.000 HD
BRANCH   8  10
ATOM     10  C   UNL     1      -0.167  -9.797  17.497  0.00  0.00    +0.000 C 
ATOM     11  H   UNL     1       0.518 -10.217  18.238  0.00  0.00    +0.000 HD
ATOM     12  H   UNL     1       0.145 -10.128  16.502  0.00  0.00    +0.000 HD
ATOM     13  H   UNL     1      -1.163 -10.208  17.690  0.00  0.00    +0.000 HD
ENDBRANCH   8  10
BRANCH   8  14
ATOM     14  C   UNL     1      -0.136  -7.741  18.970  0.00  0.00    +0.000 C 
ATOM     15  H   UNL     1       0.901  -7.621  19.302  0.00  0.00    +0.000 HD
ATOM     16  H   UNL     1      -0.639  -6.778  19.090  0.00  0.00    +0.000 HD
ATOM     17  H   UNL     1      -0.634  -8.435  19.657  0.00  0.00    +0.000 HD
ENDBRANCH   8  14
ENDBRANCH   4   7
ENDBRANCH   1   4
BRANCH   1  18
ATOM     18  C   UNL     1       1.703  -4.814  15.177  0.00  0.00    +0.000 C 
BRANCH  18  19
ATOM     19  C   UNL     1       2.079  -3.356  15.338  0.00  0.00    +0.000 C 
ATOM     20  C   UNL     1       3.106  -2.711  14.769  0.00  0.00    +0.000 C 
ATOM     21  H   UNL     1       1.428  -2.768  15.983  0.00  0.00    +0.000 HD
ATOM     22  H   UNL     1       3.261  -1.656  14.965  0.00  0.00    +0.000 HD
ATOM     23  H   UNL     1       3.808  -3.203  14.107  0.00  0.00    +0.000 HD
ENDBRANCH  18  19
BRANCH  18  24
ATOM     24  C   UNL     1       2.782  -5.693  14.531  0.00  0.00    +0.000 C 
ATOM     25  H   UNL     1       2.375  -6.232  13.668  0.00  0.00    +0.000 HD
ATOM     26  H   UNL     1       3.605  -5.082  14.142  0.00  0.00    +0.000 HD
ATOM     27  H   UNL     1       3.199  -6.427  15.227  0.00  0.00    +0.000 HD
ENDBRANCH  18  24
BRANCH  18  28
ATOM     28  O   UNL     1       0.581  -4.859  14.278  0.00  0.00    +0.000 OA
ATOM     29  H   UNL     1      -0.187  -5.203  14.765  0.00  0.00    +0.000 HD
ENDBRANCH  18  28
ENDBRANCH   1  18
TORSDOF 8
ENDMDL
MODEL 2
REMARK VINA RESULT:    -4.674     16.263     17.921
REMARK INTER + INTRA:          -6.734
REMARK INTER:                  -6.389
REMARK INTRA:                  -0.345
REMARK UNBOUND:                -0.420
REMARK  Name = 6549
REMARK  8 active torsions:
REMARK  status: ('A' for Active; 'I' for Inactive)
REMARK    1  A    between atoms: O_1  and  C_2
REMARK    2  A    between atoms: C_2  and  C_3
REMARK    3  A    between atoms: C_2  and  C_5
REMARK    4  A    between atoms: C_2  and  C_6
REMARK    5  A    between atoms: C_3  and  C_4
REMARK    6  A    between atoms: C_4  and  C_7
REMARK    7  A    between atoms: C_8  and  C_9
REMARK    8  A    between atoms: C_8  and  C_10
REMARK                            x       y       z     vdW  Elec       q    Type
REMARK                         _______ _______ _______ _____ _____    ______ ____
ROOT
ATOM      1  C   UNL     1       6.135 -13.091  -0.666  0.00  0.00    +0.000 C 
ATOM      2  H   UNL     1       6.013 -13.436  -1.702  0.00  0.00    +0.000 HD
ATOM      3  H   UNL     1       5.991 -13.994  -0.055  0.00  0.00    +0.000 HD
ENDROOT
BRANCH   1   4
ATOM      4  C   UNL     1       5.041 -12.069  -0.337  0.00  0.00    +0.000 C 
ATOM      5  H   UNL     1       4.274 -12.040  -1.117  0.00  0.00    +0.000 HD
ATOM      6  H   UNL     1       5.465 -11.058  -0.306  0.00  0.00    +0.000 HD
BRANCH   4   7
ATOM      7  C   UNL     1       4.437 -12.342   1.012  0.00  0.00    +0.000 C 
ATOM      8  C   UNL     1       3.305 -11.822   1.525  0.00  0.00    +0.000 C 
ATOM      9  H   UNL     1       4.989 -13.052   1.626  0.00  0.00    +0.000 HD
BRANCH   8  10
ATOM     10  C   UNL     1       2.750 -12.137   2.885  0.00  0.00    +0.000 C 
ATOM     11  H   UNL     1       2.224 -11.269   3.294  0.00  0.00    +0.000 HD
ATOM     12  H   UNL     1       3.558 -12.413   3.570  0.00  0.00    +0.000 HD
ATOM     13  H   UNL     1       2.042 -12.971   2.848  0.00  0.00    +0.000 HD
ENDBRANCH   8  10
BRANCH   8  14
ATOM     14  C   UNL     1       2.476 -10.856   0.721  0.00  0.00    +0.000 C 
ATOM     15  H   UNL     1       3.124 -10.102   0.261  0.00  0.00    +0.000 HD
ATOM     16  H   UNL     1       1.882 -11.316  -0.072  0.00  0.00    +0.000 HD
ATOM     17  H   UNL     1       1.766 -10.339   1.377  0.00  0.00    +0.000 HD
ENDBRANCH   8  14
ENDBRANCH   4   7
ENDBRANCH   1   4
BRANCH   1  18
ATOM     18  C   UNL     1       7.586 -12.586  -0.469  0.00  0.00    +0.000 C 
BRANCH  18  19
ATOM     19  C   UNL     1       7.649 -11.075  -0.551  0.00  0.00    +0.000 C 
ATOM     20  C   UNL     1       8.744 -10.304  -0.552  0.00  0.00    +0.000 C 
ATOM     21  H   UNL     1       6.690 -10.565  -0.627  0.00  0.00    +0.000 HD
ATOM     22  H   UNL     1       8.649  -9.226  -0.622  0.00  0.00    +0.000 HD
ATOM     23  H   UNL     1       9.744 -10.713  -0.486  0.00  0.00    +0.000 HD
ENDBRANCH  18  19
BRANCH  18  24
ATOM     24  C   UNL     1       8.215 -13.193   0.790  0.00  0.00    +0.000 C 
ATOM     25  H   UNL     1       7.701 -12.836   1.690  0.00  0.00    +0.000 HD
ATOM     26  H   UNL     1       8.107 -14.285   0.797  0.00  0.00    +0.000 HD
ATOM     27  H   UNL     1       9.279 -12.953   0.887  0.00  0.00    +0.000 HD
ENDBRANCH  18  24
BRANCH  18  28
ATOM     28  O   UNL     1       8.358 -13.096  -1.570  0.00  0.00    +0.000 OA
ATOM     29  H   UNL     1       9.141 -13.548  -1.211  0.00  0.00    +0.000 HD
ENDBRANCH  18  28
ENDBRANCH   1  18
TORSDOF 8
ENDMDL
MODEL 3
REMARK VINA RESULT:    -4.571     18.145     20.137
REMARK INTER + INTRA:          -6.595
REMARK INTER:                  -6.349
REMARK INTRA:                  -0.246
REMARK UNBOUND:                -0.420
REMARK  Name = 6549
REMARK  8 active torsions:
REMARK  status: ('A' for Active; 'I' for Inactive)
REMARK    1  A    between atoms: O_1  and  C_2
REMARK    2  A    between atoms: C_2  and  C_3
REMARK    3  A    between atoms: C_2  and  C_5
REMARK    4  A    between atoms: C_2  and  C_6
REMARK    5  A    between atoms: C_3  and  C_4
REMARK    6  A    between atoms: C_4  and  C_7
REMARK    7  A    between atoms: C_8  and  C_9
REMARK    8  A    between atoms: C_8  and  C_10
REMARK                            x       y       z     vdW  Elec       q    Type
REMARK                         _______ _______ _______ _____ _____    ______ ____
ROOT
ATOM      1  C   UNL     1       7.609 -11.059  -0.581  0.00  0.00    +0.000 C 
ATOM      2  H   UNL     1       7.074 -10.572  -1.409  0.00  0.00    +0.000 HD
ATOM      3  H   UNL     1       7.846 -10.241   0.114  0.00  0.00    +0.000 HD
ENDROOT
BRANCH   1   4
ATOM      4  C   UNL     1       8.909 -11.677  -1.108  0.00  0.00    +0.000 C 
ATOM      5  H   UNL     1       8.735 -12.258  -2.019  0.00  0.00    +0.000 HD
ATOM      6  H   UNL     1       9.311 -12.390  -0.379  0.00  0.00    +0.000 HD
BRANCH   4   7
ATOM      7  C   UNL     1       9.957 -10.622  -1.326  0.00  0.00    +0.000 C 
ATOM      8  C   UNL     1      10.856 -10.553  -2.327  0.00  0.00    +0.000 C 
ATOM      9  H   UNL     1       9.967  -9.827  -0.582  0.00  0.00    +0.000 HD
BRANCH   8  10
ATOM     10  C   UNL     1      11.882  -9.467  -2.491  0.00  0.00    +0.000 C 
ATOM     11  H   UNL     1      11.395  -8.502  -2.656  0.00  0.00    +0.000 HD
ATOM     12  H   UNL     1      12.531  -9.684  -3.345  0.00  0.00    +0.000 HD
ATOM     13  H   UNL     1      12.516  -9.375  -1.603  0.00  0.00    +0.000 HD
ENDBRANCH   8  10
BRANCH   8  14
ATOM     14  C   UNL     1      10.881 -11.603  -3.405  0.00  0.00    +0.000 C 
ATOM     15  H   UNL     1      11.282 -12.540  -3.004  0.00  0.00    +0.000 HD
ATOM     16  H   UNL     1       9.908 -11.819  -3.853  0.00  0.00    +0.000 HD
ATOM     17  H   UNL     1      11.532 -11.278  -4.225  0.00  0.00    +0.000 HD
ENDBRANCH   8  14
ENDBRANCH   4   7
ENDBRANCH   1   4
BRANCH   1  18
ATOM     18  C   UNL     1       6.651 -12.049   0.127  0.00  0.00    +0.000 C 
BRANCH  18  19
ATOM     19  C   UNL     1       5.264 -11.986  -0.479  0.00  0.00    +0.000 C 
ATOM     20  C   UNL     1       4.721 -12.836  -1.360  0.00  0.00    +0.000 C 
ATOM     21  H   UNL     1       4.640 -11.159  -0.146  0.00  0.00    +0.000 HD
ATOM     22  H   UNL     1       3.707 -12.679  -1.712  0.00  0.00    +0.000 HD
ATOM     23  H   UNL     1       5.256 -13.693  -1.748  0.00  0.00    +0.000 HD
ENDBRANCH  18  19
BRANCH  18  24
ATOM     24  C   UNL     1       7.263 -13.453   0.199  0.00  0.00    +0.000 C 
ATOM     25  H   UNL     1       8.022 -13.585  -0.581  0.00  0.00    +0.000 HD
ATOM     26  H   UNL     1       7.784 -13.606   1.153  0.00  0.00    +0.000 HD
ATOM     27  H   UNL     1       6.516 -14.244   0.085  0.00  0.00    +0.000 HD
ENDBRANCH  18  24
BRANCH  18  28
ATOM     28  O   UNL     1       6.531 -11.610   1.491  0.00  0.00    +0.000 OA
ATOM     29  H   UNL     1       7.301 -11.940   1.987  0.00  0.00    +0.000 HD
ENDBRANCH  18  28
ENDBRANCH   1  18
TORSDOF 8
ENDMDL
MODEL 4
REMARK VINA RESULT:    -4.430     15.616     17.136
REMARK INTER + INTRA:          -6.404
REMARK INTER:                  -6.192
REMARK INTRA:                  -0.213
REMARK UNBOUND:                -0.420
REMARK  Name = 6549
REMARK  8 active torsions:
REMARK  status: ('A' for Active; 'I' for Inactive)
REMARK    1  A    between atoms: O_1  and  C_2
REMARK    2  A    between atoms: C_2  and  C_3
REMARK    3  A    between atoms: C_2  and  C_5
REMARK    4  A    between atoms: C_2  and  C_6
REMARK    5  A    between atoms: C_3  and  C_4
REMARK    6  A    between atoms: C_4  and  C_7
REMARK    7  A    between atoms: C_8  and  C_9
REMARK    8  A    between atoms: C_8  and  C_10
REMARK                            x       y       z     vdW  Elec       q    Type
REMARK                         _______ _______ _______ _____ _____    ______ ____
ROOT
ATOM      1  C   UNL     1       6.695 -12.125   1.406  0.00  0.00    +0.000 C 
ATOM      2  H   UNL     1       7.615 -12.354   1.963  0.00  0.00    +0.000 HD
ATOM      3  H   UNL     1       6.345 -11.173   1.831  0.00  0.00    +0.000 HD
ENDROOT
BRANCH   1   4
ATOM      4  C   UNL     1       5.653 -13.218   1.670  0.00  0.00    +0.000 C 
ATOM      5  H   UNL     1       5.941 -13.848   2.517  0.00  0.00    +0.000 HD
ATOM      6  H   UNL     1       5.591 -13.896   0.810  0.00  0.00    +0.000 HD
BRANCH   4   7
ATOM      7  C   UNL     1       4.287 -12.624   1.870  0.00  0.00    +0.000 C 
ATOM      8  C   UNL     1       3.267 -13.136   2.585  0.00  0.00    +0.000 C 
ATOM      9  H   UNL     1       4.129 -11.665   1.379  0.00  0.00    +0.000 HD
BRANCH   8  10
ATOM     10  C   UNL     1       1.920 -12.490   2.749  0.00  0.00    +0.000 C 
ATOM     11  H   UNL     1       1.855 -11.980   3.715  0.00  0.00    +0.000 HD
ATOM     12  H   UNL     1       1.128 -13.244   2.696  0.00  0.00    +0.000 HD
ATOM     13  H   UNL     1       1.731 -11.749   1.965  0.00  0.00    +0.000 HD
ENDBRANCH   8  10
BRANCH   8  14
ATOM     14  C   UNL     1       3.425 -14.443   3.314  0.00  0.00    +0.000 C 
ATOM     15  H   UNL     1       2.799 -15.209   2.843  0.00  0.00    +0.000 HD
ATOM     16  H   UNL     1       4.449 -14.824   3.351  0.00  0.00    +0.000 HD
ATOM     17  H   UNL     1       3.100 -14.331   4.354  0.00  0.00    +0.000 HD
ENDBRANCH   8  14
ENDBRANCH   4   7
ENDBRANCH   1   4
BRANCH   1  18
ATOM     18  C   UNL     1       7.050 -11.901  -0.084  0.00  0.00    +0.000 C 
BRANCH  18  19
ATOM     19  C   UNL     1       8.293 -11.047  -0.222  0.00  0.00    +0.000 C 
ATOM     20  C   UNL     1       8.358  -9.747  -0.537  0.00  0.00    +0.000 C 
ATOM     21  H   UNL     1       9.238 -11.554  -0.032  0.00  0.00    +0.000 HD
ATOM     22  H   UNL     1       9.321  -9.250  -0.597  0.00  0.00    +0.000 HD
ATOM     23  H   UNL     1       7.476  -9.152  -0.739  0.00  0.00    +0.000 HD
ENDBRANCH  18  19
BRANCH  18  24
ATOM     24  C   UNL     1       7.089 -13.230  -0.848  0.00  0.00    +0.000 C 
ATOM     25  H   UNL     1       6.079 -13.536  -1.145  0.00  0.00    +0.000 HD
ATOM     26  H   UNL     1       7.658 -13.130  -1.781  0.00  0.00    +0.000 HD
ATOM     27  H   UNL     1       7.533 -14.040  -0.261  0.00  0.00    +0.000 HD
ENDBRANCH  18  24
BRANCH  18  28
ATOM     28  O   UNL     1       5.965 -11.156  -0.665  0.00  0.00    +0.000 OA
ATOM     29  H   UNL     1       5.756 -10.410  -0.076  0.00  0.00    +0.000 HD
ENDBRANCH  18  28
ENDBRANCH   1  18
TORSDOF 8
ENDMDL
MODEL 5
REMARK VINA RESULT:    -4.292     16.130     17.866
REMARK INTER + INTRA:          -6.218
REMARK INTER:                  -5.844
REMARK INTRA:                  -0.374
REMARK UNBOUND:                -0.420
REMARK  Name = 6549
REMARK  8 active torsions:
REMARK  status: ('A' for Active; 'I' for Inactive)
REMARK    1  A    between atoms: O_1  and  C_2
REMARK    2  A    between atoms: C_2  and  C_3
REMARK    3  A    between atoms: C_2  and  C_5
REMARK    4  A    between atoms: C_2  and  C_6
REMARK    5  A    between atoms: C_3  and  C_4
REMARK    6  A    between atoms: C_4  and  C_7
REMARK    7  A    between atoms: C_8  and  C_9
REMARK    8  A    between atoms: C_8  and  C_10
REMARK                            x       y       z     vdW  Elec       q    Type
REMARK                         _______ _______ _______ _____ _____    ______ ____
ROOT
ATOM      1  C   UNL     1       6.544 -12.308   1.305  0.00  0.00    +0.000 C 
ATOM      2  H   UNL     1       6.940 -12.696   2.256  0.00  0.00    +0.000 HD
ATOM      3  H   UNL     1       6.346 -11.245   1.503  0.00  0.00    +0.000 HD
ENDROOT
BRANCH   1   4
ATOM      4  C   UNL     1       5.230 -13.022   0.972  0.00  0.00    +0.000 C 
ATOM      5  H   UNL     1       4.884 -13.637   1.809  0.00  0.00    +0.000 HD
ATOM      6  H   UNL     1       5.379 -13.720   0.140  0.00  0.00    +0.000 HD
BRANCH   4   7
ATOM      7  C   UNL     1       4.175 -12.039   0.546  0.00  0.00    +0.000 C 
ATOM      8  C   UNL     1       3.120 -11.606   1.263  0.00  0.00    +0.000 C 
ATOM      9  H   UNL     1       4.304 -11.636  -0.457  0.00  0.00    +0.000 HD
BRANCH   8  10
ATOM     10  C   UNL     1       2.097 -10.617   0.779  0.00  0.00    +0.000 C 
ATOM     11  H   UNL     1       2.579  -9.812   0.216  0.00  0.00    +0.000 HD
ATOM     12  H   UNL     1       1.561 -10.179   1.627  0.00  0.00    +0.000 HD
ATOM     13  H   UNL     1       1.359 -11.089   0.123  0.00  0.00    +0.000 HD
ENDBRANCH   8  10
BRANCH   8  14
ATOM     14  C   UNL     1       2.896 -12.099   2.667  0.00  0.00    +0.000 C 
ATOM     15  H   UNL     1       2.354 -13.051   2.645  0.00  0.00    +0.000 HD
ATOM     16  H   UNL     1       3.808 -12.246   3.250  0.00  0.00    +0.000 HD
ATOM     17  H   UNL     1       2.289 -11.375   3.223  0.00  0.00    +0.000 HD
ENDBRANCH   8  14
ENDBRANCH   4   7
ENDBRANCH   1   4
BRANCH   1  18
ATOM     18  C   UNL     1       7.643 -12.414   0.220  0.00  0.00    +0.000 C 
BRANCH  18  19
ATOM     19  C   UNL     1       7.307 -13.494  -0.787  0.00  0.00    +0.000 C 
ATOM     20  C   UNL     1       8.084 -13.960  -1.773  0.00  0.00    +0.000 C 
ATOM     21  H   UNL     1       6.322 -13.947  -0.684  0.00  0.00    +0.000 HD
ATOM     22  H   UNL     1       7.721 -14.746  -2.426  0.00  0.00    +0.000 HD
ATOM     23  H   UNL     1       9.082 -13.581  -1.956  0.00  0.00    +0.000 HD
ENDBRANCH  18  19
BRANCH  18  24
ATOM     24  C   UNL     1       7.956 -11.040  -0.385  0.00  0.00    +0.000 C 
ATOM     25  H   UNL     1       8.163 -11.128  -1.457  0.00  0.00    +0.000 HD
ATOM     26  H   UNL     1       7.093 -10.368  -0.301  0.00  0.00    +0.000 HD
ATOM     27  H   UNL     1       8.815 -10.557   0.090  0.00  0.00    +0.000 HD
ENDBRANCH  18  24
BRANCH  18  28
ATOM     28  O   UNL     1       8.850 -12.826   0.886  0.00  0.00    +0.000 OA
ATOM     29  H   UNL     1       9.608 -12.478   0.386  0.00  0.00    +0.000 HD
ENDBRANCH  18  28
ENDBRANCH   1  18
TORSDOF 8
ENDMDL
MODEL 6
REMARK VINA RESULT:    -4.233     15.661     17.134
REMARK INTER + INTRA:          -6.138
REMARK INTER:                  -5.762
REMARK INTRA:                  -0.376
REMARK UNBOUND:                -0.420
REMARK  Name = 6549
REMARK  8 active torsions:
REMARK  status: ('A' for Active; 'I' for Inactive)
REMARK    1  A    between atoms: O_1  and  C_2
REMARK    2  A    between atoms: C_2  and  C_3
REMARK    3  A    between atoms: C_2  and  C_5
REMARK    4  A    between atoms: C_2  and  C_6
REMARK    5  A    between atoms: C_3  and  C_4
REMARK    6  A    between atoms: C_4  and  C_7
REMARK    7  A    between atoms: C_8  and  C_9
REMARK    8  A    between atoms: C_8  and  C_10
REMARK                            x       y       z     vdW  Elec       q    Type
REMARK                         _______ _______ _______ _____ _____    ______ ____
ROOT
ATOM      1  C   UNL     1       5.110 -12.266   1.389  0.00  0.00    +0.000 C 
ATOM      2  H   UNL     1       5.539 -13.179   1.825  0.00  0.00    +0.000 HD
ATOM      3  H   UNL     1       5.647 -11.445   1.887  0.00  0.00    +0.000 HD
ENDROOT
BRANCH   1   4
ATOM      4  C   UNL     1       3.619 -12.188   1.734  0.00  0.00    +0.000 C 
ATOM      5  H   UNL     1       2.996 -12.486   0.885  0.00  0.00    +0.000 HD
ATOM      6  H   UNL     1       3.336 -11.151   1.954  0.00  0.00    +0.000 HD
BRANCH   4   7
ATOM      7  C   UNL     1       3.305 -13.005   2.956  0.00  0.00    +0.000 C 
ATOM      8  C   UNL     1       3.295 -14.348   3.065  0.00  0.00    +0.000 C 
ATOM      9  H   UNL     1       3.069 -12.425   3.846  0.00  0.00    +0.000 HD
BRANCH   8  10
ATOM     10  C   UNL     1       2.972 -15.109   4.319  0.00  0.00    +0.000 C 
ATOM     11  H   UNL     1       3.517 -16.056   4.343  0.00  0.00    +0.000 HD
ATOM     12  H   UNL     1       1.899 -15.319   4.371  0.00  0.00    +0.000 HD
ATOM     13  H   UNL     1       3.245 -14.542   5.215  0.00  0.00    +0.000 HD
ENDBRANCH   8  10
BRANCH   8  14
ATOM     14  C   UNL     1       3.638 -15.213   1.881  0.00  0.00    +0.000 C 
ATOM     15  H   UNL     1       4.307 -16.022   2.194  0.00  0.00    +0.000 HD
ATOM     16  H   UNL     1       2.778 -15.662   1.380  0.00  0.00    +0.000 HD
ATOM     17  H   UNL     1       4.160 -14.616   1.124  0.00  0.00    +0.000 HD
ENDBRANCH   8  14
ENDBRANCH   4   7
ENDBRANCH   1   4
BRANCH   1  18
ATOM     18  C   UNL     1       5.438 -12.226  -0.123  0.00  0.00    +0.000 C 
BRANCH  18  19
ATOM     19  C   UNL     1       6.009 -13.550  -0.588  0.00  0.00    +0.000 C 
ATOM     20  C   UNL     1       6.820 -14.371   0.091  0.00  0.00    +0.000 C 
ATOM     21  H   UNL     1       5.713 -13.868  -1.587  0.00  0.00    +0.000 HD
ATOM     22  H   UNL     1       7.155 -15.299  -0.360  0.00  0.00    +0.000 HD
ATOM     23  H   UNL     1       7.168 -14.149   1.092  0.00  0.00    +0.000 HD
ENDBRANCH  18  19
BRANCH  18  24
ATOM     24  C   UNL     1       4.239 -11.718  -0.935  0.00  0.00    +0.000 C 
ATOM     25  H   UNL     1       3.705 -10.935  -0.385  0.00  0.00    +0.000 HD
ATOM     26  H   UNL     1       4.568 -11.254  -1.873  0.00  0.00    +0.000 HD
ATOM     27  H   UNL     1       3.527 -12.513  -1.176  0.00  0.00    +0.000 HD
ENDBRANCH  18  24
BRANCH  18  28
ATOM     28  O   UNL     1       6.469 -11.240  -0.302  0.00  0.00    +0.000 OA
ATOM     29  H   UNL     1       6.058 -10.359  -0.273  0.00  0.00    +0.000 HD
ENDBRANCH  18  28
ENDBRANCH   1  18
TORSDOF 8
ENDMDL
MODEL 7
REMARK VINA RESULT:    -4.226     25.080     28.103
REMARK INTER + INTRA:          -6.129
REMARK INTER:                  -5.697
REMARK INTRA:                  -0.431
REMARK UNBOUND:                -0.420
REMARK  Name = 6549
REMARK  8 active torsions:
REMARK  status: ('A' for Active; 'I' for Inactive)
REMARK    1  A    between atoms: O_1  and  C_2
REMARK    2  A    between atoms: C_2  and  C_3
REMARK    3  A    between atoms: C_2  and  C_5
REMARK    4  A    between atoms: C_2  and  C_6
REMARK    5  A    between atoms: C_3  and  C_4
REMARK    6  A    between atoms: C_4  and  C_7
REMARK    7  A    between atoms: C_8  and  C_9
REMARK    8  A    between atoms: C_8  and  C_10
REMARK                            x       y       z     vdW  Elec       q    Type
REMARK                         _______ _______ _______ _____ _____    ______ ____
ROOT
ATOM      1  C   UNL     1       8.854  12.053  -3.727  0.00  0.00    +0.000 C 
ATOM      2  H   UNL     1       8.069  11.285  -3.685  0.00  0.00    +0.000 HD
ATOM      3  H   UNL     1       9.795  11.491  -3.629  0.00  0.00    +0.000 HD
ENDROOT
BRANCH   1   4
ATOM      4  C   UNL     1       8.700  13.006  -2.537  0.00  0.00    +0.000 C 
ATOM      5  H   UNL     1       8.176  13.923  -2.825  0.00  0.00    +0.000 HD
ATOM      6  H   UNL     1       9.686  13.332  -2.184  0.00  0.00    +0.000 HD
BRANCH   4   7
ATOM      7  C   UNL     1       8.014  12.325  -1.386  0.00  0.00    +0.000 C 
ATOM      8  C   UNL     1       6.804  12.608  -0.868  0.00  0.00    +0.000 C 
ATOM      9  H   UNL     1       8.575  11.505  -0.940  0.00  0.00    +0.000 HD
BRANCH   8  10
ATOM     10  C   UNL     1       6.170  11.886   0.288  0.00  0.00    +0.000 C 
ATOM     11  H   UNL     1       5.615  12.587   0.918  0.00  0.00    +0.000 HD
ATOM     12  H   UNL     1       6.937  11.398   0.897  0.00  0.00    +0.000 HD
ATOM     13  H   UNL     1       5.472  11.116  -0.053  0.00  0.00    +0.000 HD
ENDBRANCH   8  10
BRANCH   8  14
ATOM     14  C   UNL     1       5.961  13.710  -1.453  0.00  0.00    +0.000 C 
ATOM     15  H   UNL     1       5.458  14.260  -0.650  0.00  0.00    +0.000 HD
ATOM     16  H   UNL     1       6.512  14.432  -2.061  0.00  0.00    +0.000 HD
ATOM     17  H   UNL     1       5.191  13.282  -2.105  0.00  0.00    +0.000 HD
ENDBRANCH   8  14
ENDBRANCH   4   7
ENDBRANCH   1   4
BRANCH   1  18
ATOM     18  C   UNL     1       8.824  12.729  -5.119  0.00  0.00    +0.000 C 
BRANCH  18  19
ATOM     19  C   UNL     1       7.666  13.699  -5.225  0.00  0.00    +0.000 C 
ATOM     20  C   UNL     1       6.512  13.522  -5.882  0.00  0.00    +0.000 C 
ATOM     21  H   UNL     1       7.788  14.642  -4.695  0.00  0.00    +0.000 HD
ATOM     22  H   UNL     1       5.757  14.300  -5.873  0.00  0.00    +0.000 HD
ATOM     23  H   UNL     1       6.290  12.618  -6.435  0.00  0.00    +0.000 HD
ENDBRANCH  18  19
BRANCH  18  24
ATOM     24  C   UNL     1      10.195  13.318  -5.477  0.00  0.00    +0.000 C 
ATOM     25  H   UNL     1      10.112  13.998  -6.332  0.00  0.00    +0.000 HD
ATOM     26  H   UNL     1      10.591  13.922  -4.651  0.00  0.00    +0.000 HD
ATOM     27  H   UNL     1      10.933  12.548  -5.723  0.00  0.00    +0.000 HD
ENDBRANCH  18  24
BRANCH  18  28
ATOM     28  O   UNL     1       8.588  11.689  -6.085  0.00  0.00    +0.000 OA
ATOM     29  H   UNL     1       9.350  11.084  -6.074  0.00  0.00    +0.000 HD
ENDBRANCH  18  28
ENDBRANCH   1  18
TORSDOF 8
ENDMDL
MODEL 8
REMARK VINA RESULT:    -4.199     25.410     27.210
REMARK INTER + INTRA:          -6.092
REMARK INTER:                  -5.812
REMARK INTRA:                  -0.280
REMARK UNBOUND:                -0.420
REMARK  Name = 6549
REMARK  8 active torsions:
REMARK  status: ('A' for Active; 'I' for Inactive)
REMARK    1  A    between atoms: O_1  and  C_2
REMARK    2  A    between atoms: C_2  and  C_3
REMARK    3  A    between atoms: C_2  and  C_5
REMARK    4  A    between atoms: C_2  and  C_6
REMARK    5  A    between atoms: C_3  and  C_4
REMARK    6  A    between atoms: C_4  and  C_7
REMARK    7  A    between atoms: C_8  and  C_9
REMARK    8  A    between atoms: C_8  and  C_10
REMARK                            x       y       z     vdW  Elec       q    Type
REMARK                         _______ _______ _______ _____ _____    ______ ____
ROOT
ATOM      1  C   UNL     1       8.908 -11.965  -8.005  0.00  0.00    +0.000 C 
ATOM      2  H   UNL     1       8.025 -11.723  -7.396  0.00  0.00    +0.000 HD
ATOM      3  H   UNL     1       9.686 -12.222  -7.271  0.00  0.00    +0.000 HD
ENDROOT
BRANCH   1   4
ATOM      4  C   UNL     1       9.339 -10.724  -8.794  0.00  0.00    +0.000 C 
ATOM      5  H   UNL     1       9.031 -10.790  -9.843  0.00  0.00    +0.000 HD
ATOM      6  H   UNL     1      10.433 -10.650  -8.815  0.00  0.00    +0.000 HD
BRANCH   4   7
ATOM      7  C   UNL     1       8.818  -9.469  -8.152  0.00  0.00    +0.000 C 
ATOM      8  C   UNL     1       9.199  -8.201  -8.400  0.00  0.00    +0.000 C 
ATOM      9  H   UNL     1       8.036  -9.625  -7.410  0.00  0.00    +0.000 HD
BRANCH   8  10
ATOM     10  C   UNL     1       8.636  -6.983  -7.723  0.00  0.00    +0.000 C 
ATOM     11  H   UNL     1       8.756  -6.102  -8.360  0.00  0.00    +0.000 HD
ATOM     12  H   UNL     1       9.151  -6.804  -6.774  0.00  0.00    +0.000 HD
ATOM     13  H   UNL     1       7.569  -7.099  -7.508  0.00  0.00    +0.000 HD
ENDBRANCH   8  10
BRANCH   8  14
ATOM     14  C   UNL     1      10.253  -7.909  -9.434  0.00  0.00    +0.000 C 
ATOM     15  H   UNL     1      10.570  -8.840  -9.916  0.00  0.00    +0.000 HD
ATOM     16  H   UNL     1       9.943  -7.215 -10.219  0.00  0.00    +0.000 HD
ATOM     17  H   UNL     1      11.130  -7.460  -8.954  0.00  0.00    +0.000 HD
ENDBRANCH   8  14
ENDBRANCH   4   7
ENDBRANCH   1   4
BRANCH   1  18
ATOM     18  C   UNL     1       8.604 -13.217  -8.863  0.00  0.00    +0.000 C 
BRANCH  18  19
ATOM     19  C   UNL     1       8.675 -12.891 -10.340  0.00  0.00    +0.000 C 
ATOM     20  C   UNL     1       7.828 -13.278 -11.302  0.00  0.00    +0.000 C 
ATOM     21  H   UNL     1       9.508 -12.259 -10.645  0.00  0.00    +0.000 HD
ATOM     22  H   UNL     1       7.993 -12.968 -12.328  0.00  0.00    +0.000 HD
ATOM     23  H   UNL     1       6.966 -13.902 -11.103  0.00  0.00    +0.000 HD
ENDBRANCH  18  19
BRANCH  18  24
ATOM     24  C   UNL     1       9.459 -14.410  -8.421  0.00  0.00    +0.000 C 
ATOM     25  H   UNL     1       9.039 -15.349  -8.800  0.00  0.00    +0.000 HD
ATOM     26  H   UNL     1      10.471 -14.345  -8.841  0.00  0.00    +0.000 HD
ATOM     27  H   UNL     1       9.544 -14.489  -7.333  0.00  0.00    +0.000 HD
ENDBRANCH  18  24
BRANCH  18  28
ATOM     28  O   UNL     1       7.244 -13.594  -8.584  0.00  0.00    +0.000 OA
ATOM     29  H   UNL     1       7.191 -13.884  -7.657  0.00  0.00    +0.000 HD
ENDBRANCH  18  28
ENDBRANCH   1  18
TORSDOF 8
ENDMDL
MODEL 9
REMARK VINA RESULT:    -4.150     25.487     27.002
REMARK INTER + INTRA:          -6.026
REMARK INTER:                  -5.606
REMARK INTRA:                  -0.420
REMARK UNBOUND:                -0.420
REMARK  Name = 6549
REMARK  8 active torsions:
REMARK  status: ('A' for Active; 'I' for Inactive)
REMARK    1  A    between atoms: O_1  and  C_2
REMARK    2  A    between atoms: C_2  and  C_3
REMARK    3  A    between atoms: C_2  and  C_5
REMARK    4  A    between atoms: C_2  and  C_6
REMARK    5  A    between atoms: C_3  and  C_4
REMARK    6  A    between atoms: C_4  and  C_7
REMARK    7  A    between atoms: C_8  and  C_9
REMARK    8  A    between atoms: C_8  and  C_10
REMARK                            x       y       z     vdW  Elec       q    Type
REMARK                         _______ _______ _______ _____ _____    ______ ____
ROOT
ATOM      1  C   UNL     1      17.976   9.531   0.528  0.00  0.00    +0.000 C 
ATOM      2  H   UNL     1      18.013  10.568   0.892  0.00  0.00    +0.000 HD
ATOM      3  H   UNL     1      18.013   9.623  -0.567  0.00  0.00    +0.000 HD
ENDROOT
BRANCH   1   4
ATOM      4  C   UNL     1      16.647   8.892   0.945  0.00  0.00    +0.000 C 
ATOM      5  H   UNL     1      16.779   8.212   1.793  0.00  0.00    +0.000 HD
ATOM      6  H   UNL     1      16.254   8.271   0.131  0.00  0.00    +0.000 HD
BRANCH   4   7
ATOM      7  C   UNL     1      15.614   9.942   1.244  0.00  0.00    +0.000 C 
ATOM      8  C   UNL     1      15.192  10.357   2.455  0.00  0.00    +0.000 C 
ATOM      9  H   UNL     1      15.175  10.415   0.367  0.00  0.00    +0.000 HD
BRANCH   8  10
ATOM     10  C   UNL     1      14.152  11.417   2.688  0.00  0.00    +0.000 C 
ATOM     11  H   UNL     1      13.162  11.049   2.405  0.00  0.00    +0.000 HD
ATOM     12  H   UNL     1      14.379  12.308   2.097  0.00  0.00    +0.000 HD
ATOM     13  H   UNL     1      14.111  11.714   3.741  0.00  0.00    +0.000 HD
ENDBRANCH   8  10
BRANCH   8  14
ATOM     14  C   UNL     1      15.776   9.768   3.710  0.00  0.00    +0.000 C 
ATOM     15  H   UNL     1      15.080   9.038   4.138  0.00  0.00    +0.000 HD
ATOM     16  H   UNL     1      16.740   9.272   3.576  0.00  0.00    +0.000 HD
ATOM     17  H   UNL     1      15.937  10.558   4.452  0.00  0.00    +0.000 HD
ENDBRANCH   8  14
ENDBRANCH   4   7
ENDBRANCH   1   4
BRANCH   1  18
ATOM     18  C   UNL     1      19.244   8.782   1.005  0.00  0.00    +0.000 C 
BRANCH  18  19
ATOM     19  C   UNL     1      18.936   7.905   2.201  0.00  0.00    +0.000 C 
ATOM     20  C   UNL     1      19.522   6.748   2.535  0.00  0.00    +0.000 C 
ATOM     21  H   UNL     1      18.155   8.269   2.867  0.00  0.00    +0.000 HD
ATOM     22  H   UNL     1      19.208   6.218   3.429  0.00  0.00    +0.000 HD
ATOM     23  H   UNL     1      20.312   6.303   1.944  0.00  0.00    +0.000 HD
ENDBRANCH  18  19
BRANCH  18  24
ATOM     24  C   UNL     1      19.934   8.066  -0.162  0.00  0.00    +0.000 C 
ATOM     25  H   UNL     1      20.876   8.565  -0.418  0.00  0.00    +0.000 HD
ATOM     26  H   UNL     1      20.205   7.038   0.112  0.00  0.00    +0.000 HD
ATOM     27  H   UNL     1      19.311   8.029  -1.061  0.00  0.00    +0.000 HD
ENDBRANCH  18  24
BRANCH  18  28
ATOM     28  O   UNL     1      20.177   9.782   1.450  0.00  0.00    +0.000 OA
ATOM     29  H   UNL     1      19.901  10.641   1.087  0.00  0.00    +0.000 HD
ENDBRANCH  18  28
ENDBRANCH   1  18
TORSDOF 8
ENDMDL
MODEL 10
REMARK VINA RESULT:    -4.144     16.276     18.507
REMARK INTER + INTRA:          -6.018
REMARK INTER:                  -5.758
REMARK INTRA:                  -0.260
REMARK UNBOUND:                -0.420
REMARK  Name = 6549
REMARK  8 active torsions:
REMARK  status: ('A' for Active; 'I' for Inactive)
REMARK    1  A    between atoms: O_1  and  C_2
REMARK    2  A    between atoms: C_2  and  C_3
REMARK    3  A    between atoms: C_2  and  C_5
REMARK    4  A    between atoms: C_2  and  C_6
REMARK    5  A    between atoms: C_3  and  C_4
REMARK    6  A    between atoms: C_4  and  C_7
REMARK    7  A    between atoms: C_8  and  C_9
REMARK    8  A    between atoms: C_8  and  C_10
REMARK                            x       y       z     vdW  Elec       q    Type
REMARK                         _______ _______ _______ _____ _____    ______ ____
ROOT
ATOM      1  C   UNL     1       5.871 -13.145  -0.019  0.00  0.00    +0.000 C 
ATOM      2  H   UNL     1       6.477 -13.869  -0.583  0.00  0.00    +0.000 HD
ATOM      3  H   UNL     1       4.882 -13.182  -0.497  0.00  0.00    +0.000 HD
ENDROOT
BRANCH   1   4
ATOM      4  C   UNL     1       6.469 -11.744  -0.183  0.00  0.00    +0.000 C 
ATOM      5  H   UNL     1       6.476 -11.198   0.766  0.00  0.00    +0.000 HD
ATOM      6  H   UNL     1       5.847 -11.144  -0.859  0.00  0.00    +0.000 HD
BRANCH   4   7
ATOM      7  C   UNL     1       7.845 -11.811  -0.784  0.00  0.00    +0.000 C 
ATOM      8  C   UNL     1       8.722 -10.800  -0.943  0.00  0.00    +0.000 C 
ATOM      9  H   UNL     1       8.151 -12.802  -1.115  0.00  0.00    +0.000 HD
BRANCH   8  10
ATOM     10  C   UNL     1      10.089 -10.933  -1.552  0.00  0.00    +0.000 C 
ATOM     11  H   UNL     1      10.857 -10.927  -0.774  0.00  0.00    +0.000 HD
ATOM     12  H   UNL     1      10.280 -10.104  -2.241  0.00  0.00    +0.000 HD
ATOM     13  H   UNL     1      10.190 -11.867  -2.115  0.00  0.00    +0.000 HD
ENDBRANCH   8  10
BRANCH   8  14
ATOM     14  C   UNL     1       8.375  -9.410  -0.483  0.00  0.00    +0.000 C 
ATOM     15  H   UNL     1       9.271  -8.779  -0.499  0.00  0.00    +0.000 HD
ATOM     16  H   UNL     1       7.604  -8.912  -1.075  0.00  0.00    +0.000 HD
ATOM     17  H   UNL     1       8.001  -9.441   0.547  0.00  0.00    +0.000 HD
ENDBRANCH   8  14
ENDBRANCH   4   7
ENDBRANCH   1   4
BRANCH   1  18
ATOM     18  C   UNL     1       5.733 -13.633   1.444  0.00  0.00    +0.000 C 
BRANCH  18  19
ATOM     19  C   UNL     1       4.297 -13.527   1.916  0.00  0.00    +0.000 C 
ATOM     20  C   UNL     1       3.770 -12.594   2.719  0.00  0.00    +0.000 C 
ATOM     21  H   UNL     1       3.620 -14.296   1.547  0.00  0.00    +0.000 HD
ATOM     22  H   UNL     1       2.717 -12.632   2.977  0.00  0.00    +0.000 HD
ATOM     23  H   UNL     1       4.357 -11.785   3.135  0.00  0.00    +0.000 HD
ENDBRANCH  18  19
BRANCH  18  24
ATOM     24  C   UNL     1       6.375 -15.013   1.629  0.00  0.00    +0.000 C 
ATOM     25  H   UNL     1       5.829 -15.773   1.058  0.00  0.00    +0.000 HD
ATOM     26  H   UNL     1       7.400 -15.025   1.239  0.00  0.00    +0.000 HD
ATOM     27  H   UNL     1       6.403 -15.327   2.677  0.00  0.00    +0.000 HD
ENDBRANCH  18  24
BRANCH  18  28
ATOM     28  O   UNL     1       6.508 -12.735   2.259  0.00  0.00    +0.000 OA
ATOM     29  H   UNL     1       7.029 -12.162   1.671  0.00  0.00    +0.000 HD
ENDBRANCH  18  28
ENDBRANCH   1  18
TORSDOF 8
ENDMDL
