MODEL 1
REMARK VINA RESULT:    -5.502      0.000      0.000
REMARK INTER + INTRA:          -8.010
REMARK INTER:                  -7.020
REMARK INTRA:                  -0.990
REMARK UNBOUND:                -0.417
REMARK  Name = 91604
REMARK  8 active torsions:
REMARK  status: ('A' for Active; 'I' for Inactive)
REMARK    1  A    between atoms: O_1  and  C_11
REMARK    2  A    between atoms: C_3  and  C_7
REMARK    3  A    between atoms: C_4  and  C_15
REMARK    4  A    between atoms: C_7  and  C_8
REMARK    5  A    between atoms: C_8  and  C_10
REMARK    6  A    between atoms: C_10  and  C_11
REMARK    7  A    between atoms: C_11  and  C_13
REMARK    8  A    between atoms: C_11  and  C_14
REMARK                            x       y       z     vdW  Elec       q    Type
REMARK                         _______ _______ _______ _____ _____    ______ ____
ROOT
ATOM      1  C   UNL     1      -0.794  -6.408  16.549  0.00  0.00    +0.000 C 
ATOM      2  H   UNL     1      -1.094  -5.799  17.411  0.00  0.00    +0.000 HD
ATOM      3  H   UNL     1      -1.670  -6.460  15.890  0.00  0.00    +0.000 HD
ENDROOT
BRANCH   1   4
ATOM      4  C   UNL     1       0.341  -5.771  15.802  0.00  0.00    +0.000 C 
ATOM      5  C   UNL     1       2.765  -4.737  14.575  0.00  0.00    +0.000 C 
ATOM      6  C   UNL     1       1.167  -6.691  14.941  0.00  0.00    +0.000 C 
ATOM      7  C   UNL     1       2.083  -5.957  13.955  0.00  0.00    +0.000 C 
ATOM      8  C   UNL     1       1.751  -3.778  15.206  0.00  0.00    +0.000 C 
ATOM      9  C   UNL     1       0.606  -4.458  15.901  0.00  0.00    +0.000 C 
ATOM     10  H   UNL     1       3.323  -4.200  13.799  0.00  0.00    +0.000 HD
ATOM     11  H   UNL     1       1.787  -7.326  15.585  0.00  0.00    +0.000 HD
ATOM     12  H   UNL     1       0.511  -7.356  14.368  0.00  0.00    +0.000 HD
ATOM     13  H   UNL     1       2.827  -6.661  13.562  0.00  0.00    +0.000 HD
ATOM     14  H   UNL     1       1.484  -5.624  13.097  0.00  0.00    +0.000 HD
ATOM     15  H   UNL     1       1.320  -3.152  14.413  0.00  0.00    +0.000 HD
ATOM     16  H   UNL     1       2.239  -3.089  15.906  0.00  0.00    +0.000 HD
ATOM     17  H   UNL     1      -0.024  -3.825  16.520  0.00  0.00    +0.000 HD
BRANCH   5  19
ATOM     18  O   UNL     1       4.686  -5.975  15.329  0.00  0.00    +0.000 OA
ATOM     19  C   UNL     1       3.790  -5.177  15.582  0.00  0.00    +0.000 C 
ATOM     20  H   UNL     1       3.686  -4.749  16.594  0.00  0.00    +0.000 HD
ENDBRANCH   5  19
ENDBRANCH   1   4
BRANCH   1  21
ATOM     21  C   UNL     1      -0.442  -7.820  17.025  0.00  0.00    +0.000 C 
ATOM     22  H   UNL     1       0.265  -8.293  16.335  0.00  0.00    +0.000 HD
ATOM     23  H   UNL     1      -1.359  -8.419  16.990  0.00  0.00    +0.000 HD
BRANCH  21  24
ATOM     24  C   UNL     1       0.113  -7.797  18.455  0.00  0.00    +0.000 C 
ATOM     25  H   UNL     1       0.030  -6.791  18.884  0.00  0.00    +0.000 HD
ATOM     26  H   UNL     1      -0.516  -8.458  19.066  0.00  0.00    +0.000 HD
BRANCH  24  27
ATOM     27  C   UNL     1       1.579  -8.260  18.580  0.00  0.00    +0.000 C 
BRANCH  27  28
ATOM     28  C   UNL     1       1.975  -9.255  17.487  0.00  0.00    +0.000 C 
ATOM     29  H   UNL     1       1.679  -8.905  16.492  0.00  0.00    +0.000 HD
ATOM     30  H   UNL     1       3.054  -9.439  17.484  0.00  0.00    +0.000 HD
ATOM     31  H   UNL     1       1.462 -10.212  17.632  0.00  0.00    +0.000 HD
ENDBRANCH  27  28
BRANCH  27  32
ATOM     32  C   UNL     1       2.507  -7.041  18.538  0.00  0.00    +0.000 C 
ATOM     33  H   UNL     1       2.125  -6.220  19.152  0.00  0.00    +0.000 HD
ATOM     34  H   UNL     1       2.628  -6.679  17.510  0.00  0.00    +0.000 HD
ATOM     35  H   UNL     1       3.512  -7.303  18.890  0.00  0.00    +0.000 HD
ENDBRANCH  27  32
BRANCH  27  36
ATOM     36  O   UNL     1       1.745  -8.893  19.850  0.00  0.00    +0.000 OA
ATOM     37  H   UNL     1       1.475  -8.268  20.545  0.00  0.00    +0.000 HD
ENDBRANCH  27  36
ENDBRANCH  24  27
ENDBRANCH  21  24
ENDBRANCH   1  21
TORSDOF 8
ENDMDL
MODEL 2
REMARK VINA RESULT:    -5.371     20.925     23.271
REMARK INTER + INTRA:          -7.830
REMARK INTER:                  -7.405
REMARK INTRA:                  -0.425
REMARK UNBOUND:                -0.417
REMARK  Name = 91604
REMARK  8 active torsions:
REMARK  status: ('A' for Active; 'I' for Inactive)
REMARK    1  A    between atoms: O_1  and  C_11
REMARK    2  A    between atoms: C_3  and  C_7
REMARK    3  A    between atoms: C_4  and  C_15
REMARK    4  A    between atoms: C_7  and  C_8
REMARK    5  A    between atoms: C_8  and  C_10
REMARK    6  A    between atoms: C_10  and  C_11
REMARK    7  A    between atoms: C_11  and  C_13
REMARK    8  A    between atoms: C_11  and  C_14
REMARK                            x       y       z     vdW  Elec       q    Type
REMARK                         _______ _______ _______ _____ _____    ______ ____
ROOT
ATOM      1  C   UNL     1      12.732  -9.729  -3.476  0.00  0.00    +0.000 C 
ATOM      2  H   UNL     1      13.635 -10.328  -3.304  0.00  0.00    +0.000 HD
ATOM      3  H   UNL     1      12.980  -8.705  -3.169  0.00  0.00    +0.000 HD
ENDROOT
BRANCH   1   4
ATOM      4  C   UNL     1      12.352  -9.725  -4.927  0.00  0.00    +0.000 C 
ATOM      5  C   UNL     1      11.464  -9.381  -7.673  0.00  0.00    +0.000 C 
ATOM      6  C   UNL     1      13.043  -8.702  -5.790  0.00  0.00    +0.000 C 
ATOM      7  C   UNL     1      12.881  -8.951  -7.294  0.00  0.00    +0.000 C 
ATOM      8  C   UNL     1      10.999 -10.592  -6.859  0.00  0.00    +0.000 C 
ATOM      9  C   UNL     1      11.443 -10.580  -5.425  0.00  0.00    +0.000 C 
ATOM     10  H   UNL     1      11.436  -9.640  -8.739  0.00  0.00    +0.000 HD
ATOM     11  H   UNL     1      12.646  -7.707  -5.557  0.00  0.00    +0.000 HD
ATOM     12  H   UNL     1      14.115  -8.682  -5.561  0.00  0.00    +0.000 HD
ATOM     13  H   UNL     1      13.174  -8.047  -7.843  0.00  0.00    +0.000 HD
ATOM     14  H   UNL     1      13.579  -9.742  -7.599  0.00  0.00    +0.000 HD
ATOM     15  H   UNL     1      11.413 -11.502  -7.316  0.00  0.00    +0.000 HD
ATOM     16  H   UNL     1       9.909 -10.702  -6.898  0.00  0.00    +0.000 HD
ATOM     17  H   UNL     1      10.978 -11.314  -4.772  0.00  0.00    +0.000 HD
BRANCH   5  19
ATOM     18  O   UNL     1      10.003  -7.636  -8.458  0.00  0.00    +0.000 OA
ATOM     19  C   UNL     1      10.515  -8.227  -7.512  0.00  0.00    +0.000 C 
ATOM     20  H   UNL     1      10.308  -7.915  -6.474  0.00  0.00    +0.000 HD
ENDBRANCH   5  19
ENDBRANCH   1   4
BRANCH   1  21
ATOM     21  C   UNL     1      11.599 -10.256  -2.591  0.00  0.00    +0.000 C 
ATOM     22  H   UNL     1      11.943 -11.105  -1.991  0.00  0.00    +0.000 HD
ATOM     23  H   UNL     1      10.814 -10.641  -3.252  0.00  0.00    +0.000 HD
BRANCH  21  24
ATOM     24  C   UNL     1      11.032  -9.143  -1.700  0.00  0.00    +0.000 C 
ATOM     25  H   UNL     1      11.834  -8.665  -1.125  0.00  0.00    +0.000 HD
ATOM     26  H   UNL     1      10.608  -8.374  -2.359  0.00  0.00    +0.000 HD
BRANCH  24  27
ATOM     27  C   UNL     1       9.938  -9.606  -0.717  0.00  0.00    +0.000 C 
BRANCH  27  28
ATOM     28  C   UNL     1       8.770  -8.621  -0.632  0.00  0.00    +0.000 C 
ATOM     29  H   UNL     1       7.803  -9.132  -0.682  0.00  0.00    +0.000 HD
ATOM     30  H   UNL     1       8.806  -8.035   0.292  0.00  0.00    +0.000 HD
ATOM     31  H   UNL     1       8.787  -7.929  -1.481  0.00  0.00    +0.000 HD
ENDBRANCH  27  28
BRANCH  27  32
ATOM     32  C   UNL     1       9.425 -10.989  -1.133  0.00  0.00    +0.000 C 
ATOM     33  H   UNL     1       9.809 -11.777  -0.477  0.00  0.00    +0.000 HD
ATOM     34  H   UNL     1       9.721 -11.220  -2.163  0.00  0.00    +0.000 HD
ATOM     35  H   UNL     1       8.329 -11.022  -1.114  0.00  0.00    +0.000 HD
ENDBRANCH  27  32
BRANCH  27  36
ATOM     36  O   UNL     1      10.523  -9.728   0.582  0.00  0.00    +0.000 OA
ATOM     37  H   UNL     1      10.700  -8.837   0.927  0.00  0.00    +0.000 HD
ENDBRANCH  27  36
ENDBRANCH  24  27
ENDBRANCH  21  24
ENDBRANCH   1  21
TORSDOF 8
ENDMDL
MODEL 3
REMARK VINA RESULT:    -5.201     21.304     23.623
REMARK INTER + INTRA:          -7.595
REMARK INTER:                  -7.156
REMARK INTRA:                  -0.440
REMARK UNBOUND:                -0.417
REMARK  Name = 91604
REMARK  8 active torsions:
REMARK  status: ('A' for Active; 'I' for Inactive)
REMARK    1  A    between atoms: O_1  and  C_11
REMARK    2  A    between atoms: C_3  and  C_7
REMARK    3  A    between atoms: C_4  and  C_15
REMARK    4  A    between atoms: C_7  and  C_8
REMARK    5  A    between atoms: C_8  and  C_10
REMARK    6  A    between atoms: C_10  and  C_11
REMARK    7  A    between atoms: C_11  and  C_13
REMARK    8  A    between atoms: C_11  and  C_14
REMARK                            x       y       z     vdW  Elec       q    Type
REMARK                         _______ _______ _______ _____ _____    ______ ____
ROOT
ATOM      1  C   UNL     1      13.187  -9.711  -2.872  0.00  0.00    +0.000 C 
ATOM      2  H   UNL     1      13.732 -10.428  -2.245  0.00  0.00    +0.000 HD
ATOM      3  H   UNL     1      13.401  -8.718  -2.458  0.00  0.00    +0.000 HD
ENDROOT
BRANCH   1   4
ATOM      4  C   UNL     1      13.663  -9.760  -4.293  0.00  0.00    +0.000 C 
ATOM      5  C   UNL     1      14.256 -10.010  -7.128  0.00  0.00    +0.000 C 
ATOM      6  C   UNL     1      12.934  -8.872  -5.268  0.00  0.00    +0.000 C 
ATOM      7  C   UNL     1      13.656  -8.703  -6.610  0.00  0.00    +0.000 C 
ATOM      8  C   UNL     1      15.168 -10.669  -6.089  0.00  0.00    +0.000 C 
ATOM      9  C   UNL     1      14.678 -10.554  -4.674  0.00  0.00    +0.000 C 
ATOM     10  H   UNL     1      14.842  -9.807  -8.033  0.00  0.00    +0.000 HD
ATOM     11  H   UNL     1      11.938  -9.290  -5.459  0.00  0.00    +0.000 HD
ATOM     12  H   UNL     1      12.787  -7.878  -4.831  0.00  0.00    +0.000 HD
ATOM     13  H   UNL     1      12.960  -8.277  -7.343  0.00  0.00    +0.000 HD
ATOM     14  H   UNL     1      14.466  -7.972  -6.485  0.00  0.00    +0.000 HD
ATOM     15  H   UNL     1      16.153 -10.185  -6.129  0.00  0.00    +0.000 HD
ATOM     16  H   UNL     1      15.340 -11.726  -6.325  0.00  0.00    +0.000 HD
ATOM     17  H   UNL     1      15.189 -11.168  -3.937  0.00  0.00    +0.000 HD
BRANCH   5  19
ATOM     18  O   UNL     1      13.238 -12.166  -7.455  0.00  0.00    +0.000 OA
ATOM     19  C   UNL     1      13.161 -10.946  -7.555  0.00  0.00    +0.000 C 
ATOM     20  H   UNL     1      12.265 -10.472  -7.992  0.00  0.00    +0.000 HD
ENDBRANCH   5  19
ENDBRANCH   1   4
BRANCH   1  21
ATOM     21  C   UNL     1      11.684  -9.984  -2.764  0.00  0.00    +0.000 C 
ATOM     22  H   UNL     1      11.503 -11.019  -2.455  0.00  0.00    +0.000 HD
ATOM     23  H   UNL     1      11.256  -9.880  -3.767  0.00  0.00    +0.000 HD
BRANCH  21  24
ATOM     24  C   UNL     1      11.011  -8.995  -1.803  0.00  0.00    +0.000 C 
ATOM     25  H   UNL     1      11.764  -8.460  -1.213  0.00  0.00    +0.000 HD
ATOM     26  H   UNL     1      10.489  -8.245  -2.411  0.00  0.00    +0.000 HD
BRANCH  24  27
ATOM     27  C   UNL     1       9.998  -9.635  -0.833  0.00  0.00    +0.000 C 
BRANCH  27  28
ATOM     28  C   UNL     1       8.734  -8.789  -0.663  0.00  0.00    +0.000 C 
ATOM     29  H   UNL     1       8.962  -7.719  -0.634  0.00  0.00    +0.000 HD
ATOM     30  H   UNL     1       8.018  -8.971  -1.471  0.00  0.00    +0.000 HD
ATOM     31  H   UNL     1       8.243  -9.016   0.291  0.00  0.00    +0.000 HD
ENDBRANCH  27  28
BRANCH  27  32
ATOM     32  C   UNL     1       9.625 -11.036  -1.330  0.00  0.00    +0.000 C 
ATOM     33  H   UNL     1       8.811 -11.471  -0.741  0.00  0.00    +0.000 HD
ATOM     34  H   UNL     1      10.489 -11.709  -1.280  0.00  0.00    +0.000 HD
ATOM     35  H   UNL     1       9.318 -11.009  -2.383  0.00  0.00    +0.000 HD
ENDBRANCH  27  32
BRANCH  27  36
ATOM     36  O   UNL     1      10.624  -9.776   0.444  0.00  0.00    +0.000 OA
ATOM     37  H   UNL     1      10.563 -10.707   0.718  0.00  0.00    +0.000 HD
ENDBRANCH  27  36
ENDBRANCH  24  27
ENDBRANCH  21  24
ENDBRANCH   1  21
TORSDOF 8
ENDMDL
MODEL 4
REMARK VINA RESULT:    -5.138     24.501     27.453
REMARK INTER + INTRA:          -7.508
REMARK INTER:                  -7.291
REMARK INTRA:                  -0.217
REMARK UNBOUND:                -0.417
REMARK  Name = 91604
REMARK  8 active torsions:
REMARK  status: ('A' for Active; 'I' for Inactive)
REMARK    1  A    between atoms: O_1  and  C_11
REMARK    2  A    between atoms: C_3  and  C_7
REMARK    3  A    between atoms: C_4  and  C_15
REMARK    4  A    between atoms: C_7  and  C_8
REMARK    5  A    between atoms: C_8  and  C_10
REMARK    6  A    between atoms: C_10  and  C_11
REMARK    7  A    between atoms: C_11  and  C_13
REMARK    8  A    between atoms: C_11  and  C_14
REMARK                            x       y       z     vdW  Elec       q    Type
REMARK                         _______ _______ _______ _____ _____    ______ ____
ROOT
ATOM      1  C   UNL     1       8.254  13.764  -1.305  0.00  0.00    +0.000 C 
ATOM      2  H   UNL     1       8.274  14.855  -1.417  0.00  0.00    +0.000 HD
ATOM      3  H   UNL     1       9.294  13.453  -1.144  0.00  0.00    +0.000 HD
ENDROOT
BRANCH   1   4
ATOM      4  C   UNL     1       7.433  13.354  -0.118  0.00  0.00    +0.000 C 
ATOM      5  C   UNL     1       5.546  12.679   1.987  0.00  0.00    +0.000 C 
ATOM      6  C   UNL     1       6.497  12.193  -0.328  0.00  0.00    +0.000 C 
ATOM      7  C   UNL     1       5.939  11.605   0.973  0.00  0.00    +0.000 C 
ATOM      8  C   UNL     1       6.700  13.647   2.268  0.00  0.00    +0.000 C 
ATOM      9  C   UNL     1       7.525  13.991   1.061  0.00  0.00    +0.000 C 
ATOM     10  H   UNL     1       5.252  12.199   2.929  0.00  0.00    +0.000 HD
ATOM     11  H   UNL     1       5.655  12.518  -0.952  0.00  0.00    +0.000 HD
ATOM     12  H   UNL     1       7.011  11.392  -0.873  0.00  0.00    +0.000 HD
ATOM     13  H   UNL     1       5.084  10.958   0.740  0.00  0.00    +0.000 HD
ATOM     14  H   UNL     1       6.705  10.960   1.426  0.00  0.00    +0.000 HD
ATOM     15  H   UNL     1       7.376  13.184   2.999  0.00  0.00    +0.000 HD
ATOM     16  H   UNL     1       6.338  14.572   2.732  0.00  0.00    +0.000 HD
ATOM     17  H   UNL     1       8.225  14.815   1.177  0.00  0.00    +0.000 HD
BRANCH   5  19
ATOM     18  O   UNL     1       3.185  13.120   1.843  0.00  0.00    +0.000 OA
ATOM     19  C   UNL     1       4.328  13.417   1.510  0.00  0.00    +0.000 C 
ATOM     20  H   UNL     1       4.512  14.252   0.811  0.00  0.00    +0.000 HD
ENDBRANCH   5  19
ENDBRANCH   1   4
BRANCH   1  21
ATOM     21  C   UNL     1       7.739  13.132  -2.601  0.00  0.00    +0.000 C 
ATOM     22  H   UNL     1       7.476  13.907  -3.328  0.00  0.00    +0.000 HD
ATOM     23  H   UNL     1       6.811  12.600  -2.363  0.00  0.00    +0.000 HD
BRANCH  21  24
ATOM     24  C   UNL     1       8.767  12.154  -3.184  0.00  0.00    +0.000 C 
ATOM     25  H   UNL     1       9.481  11.841  -2.413  0.00  0.00    +0.000 HD
ATOM     26  H   UNL     1       8.225  11.253  -3.502  0.00  0.00    +0.000 HD
BRANCH  24  27
ATOM     27  C   UNL     1       9.559  12.701  -4.388  0.00  0.00    +0.000 C 
BRANCH  27  28
ATOM     28  C   UNL     1       8.973  12.255  -5.729  0.00  0.00    +0.000 C 
ATOM     29  H   UNL     1       8.234  12.968  -6.108  0.00  0.00    +0.000 HD
ATOM     30  H   UNL     1       9.754  12.128  -6.486  0.00  0.00    +0.000 HD
ATOM     31  H   UNL     1       8.440  11.303  -5.620  0.00  0.00    +0.000 HD
ENDBRANCH  27  28
BRANCH  27  32
ATOM     32  C   UNL     1       9.602  14.232  -4.321  0.00  0.00    +0.000 C 
ATOM     33  H   UNL     1      10.290  14.651  -5.062  0.00  0.00    +0.000 HD
ATOM     34  H   UNL     1       9.915  14.570  -3.326  0.00  0.00    +0.000 HD
ATOM     35  H   UNL     1       8.606  14.659  -4.490  0.00  0.00    +0.000 HD
ENDBRANCH  27  32
BRANCH  27  36
ATOM     36  O   UNL     1      10.903  12.222  -4.299  0.00  0.00    +0.000 OA
ATOM     37  H   UNL     1      10.881  11.253  -4.222  0.00  0.00    +0.000 HD
ENDBRANCH  27  36
ENDBRANCH  24  27
ENDBRANCH  21  24
ENDBRANCH   1  21
TORSDOF 8
ENDMDL
MODEL 5
REMARK VINA RESULT:    -5.123     24.974     26.269
REMARK INTER + INTRA:          -7.487
REMARK INTER:                  -7.020
REMARK INTRA:                  -0.467
REMARK UNBOUND:                -0.417
REMARK  Name = 91604
REMARK  8 active torsions:
REMARK  status: ('A' for Active; 'I' for Inactive)
REMARK    1  A    between atoms: O_1  and  C_11
REMARK    2  A    between atoms: C_3  and  C_7
REMARK    3  A    between atoms: C_4  and  C_15
REMARK    4  A    between atoms: C_7  and  C_8
REMARK    5  A    between atoms: C_8  and  C_10
REMARK    6  A    between atoms: C_10  and  C_11
REMARK    7  A    between atoms: C_11  and  C_13
REMARK    8  A    between atoms: C_11  and  C_14
REMARK                            x       y       z     vdW  Elec       q    Type
REMARK                         _______ _______ _______ _____ _____    ______ ____
ROOT
ATOM      1  C   UNL     1      16.813   8.846   3.785  0.00  0.00    +0.000 C 
ATOM      2  H   UNL     1      17.743   9.330   4.108  0.00  0.00    +0.000 HD
ATOM      3  H   UNL     1      16.526   8.163   4.595  0.00  0.00    +0.000 HD
ENDROOT
BRANCH   1   4
ATOM      4  C   UNL     1      15.719   9.852   3.584  0.00  0.00    +0.000 C 
ATOM      5  C   UNL     1      13.860  12.021   3.044  0.00  0.00    +0.000 C 
ATOM      6  C   UNL     1      15.344  10.147   2.155  0.00  0.00    +0.000 C 
ATOM      7  C   UNL     1      14.022  10.909   2.007  0.00  0.00    +0.000 C 
ATOM      8  C   UNL     1      14.040  11.498   4.472  0.00  0.00    +0.000 C 
ATOM      9  C   UNL     1      15.113  10.457   4.619  0.00  0.00    +0.000 C 
ATOM     10  H   UNL     1      12.859  12.459   2.953  0.00  0.00    +0.000 HD
ATOM     11  H   UNL     1      16.141  10.741   1.690  0.00  0.00    +0.000 HD
ATOM     12  H   UNL     1      15.266   9.213   1.588  0.00  0.00    +0.000 HD
ATOM     13  H   UNL     1      13.950  11.313   0.989  0.00  0.00    +0.000 HD
ATOM     14  H   UNL     1      13.191  10.200   2.122  0.00  0.00    +0.000 HD
ATOM     15  H   UNL     1      13.097  11.037   4.798  0.00  0.00    +0.000 HD
ATOM     16  H   UNL     1      14.236  12.318   5.173  0.00  0.00    +0.000 HD
ATOM     17  H   UNL     1      15.401  10.204   5.636  0.00  0.00    +0.000 HD
BRANCH   5  19
ATOM     18  O   UNL     1      15.267  13.887   3.619  0.00  0.00    +0.000 OA
ATOM     19  C   UNL     1      14.821  13.139   2.754  0.00  0.00    +0.000 C 
ATOM     20  H   UNL     1      15.102  13.271   1.695  0.00  0.00    +0.000 HD
ENDBRANCH   5  19
ENDBRANCH   1   4
BRANCH   1  21
ATOM     21  C   UNL     1      17.081   8.032   2.516  0.00  0.00    +0.000 C 
ATOM     22  H   UNL     1      16.289   8.199   1.779  0.00  0.00    +0.000 HD
ATOM     23  H   UNL     1      17.035   6.972   2.787  0.00  0.00    +0.000 HD
BRANCH  21  24
ATOM     24  C   UNL     1      18.460   8.363   1.930  0.00  0.00    +0.000 C 
ATOM     25  H   UNL     1      18.390   8.516   0.846  0.00  0.00    +0.000 HD
ATOM     26  H   UNL     1      18.787   9.315   2.367  0.00  0.00    +0.000 HD
BRANCH  24  27
ATOM     27  C   UNL     1      19.542   7.299   2.203  0.00  0.00    +0.000 C 
BRANCH  27  28
ATOM     28  C   UNL     1      20.402   7.007   0.971  0.00  0.00    +0.000 C 
ATOM     29  H   UNL     1      20.228   7.735   0.172  0.00  0.00    +0.000 HD
ATOM     30  H   UNL     1      21.469   7.009   1.217  0.00  0.00    +0.000 HD
ATOM     31  H   UNL     1      20.148   6.030   0.545  0.00  0.00    +0.000 HD
ENDBRANCH  27  28
BRANCH  27  32
ATOM     32  C   UNL     1      20.431   7.757   3.364  0.00  0.00    +0.000 C 
ATOM     33  H   UNL     1      21.465   7.417   3.240  0.00  0.00    +0.000 HD
ATOM     34  H   UNL     1      20.052   7.375   4.319  0.00  0.00    +0.000 HD
ATOM     35  H   UNL     1      20.431   8.850   3.448  0.00  0.00    +0.000 HD
ENDBRANCH  27  32
BRANCH  27  36
ATOM     36  O   UNL     1      18.894   6.088   2.599  0.00  0.00    +0.000 OA
ATOM     37  H   UNL     1      17.945   6.167   2.402  0.00  0.00    +0.000 HD
ENDBRANCH  27  36
ENDBRANCH  24  27
ENDBRANCH  21  24
ENDBRANCH   1  21
TORSDOF 8
ENDMDL
MODEL 6
REMARK VINA RESULT:    -5.107     24.163     26.049
REMARK INTER + INTRA:          -7.464
REMARK INTER:                  -6.764
REMARK INTRA:                  -0.700
REMARK UNBOUND:                -0.417
REMARK  Name = 91604
REMARK  8 active torsions:
REMARK  status: ('A' for Active; 'I' for Inactive)
REMARK    1  A    between atoms: O_1  and  C_11
REMARK    2  A    between atoms: C_3  and  C_7
REMARK    3  A    between atoms: C_4  and  C_15
REMARK    4  A    between atoms: C_7  and  C_8
REMARK    5  A    between atoms: C_8  and  C_10
REMARK    6  A    between atoms: C_10  and  C_11
REMARK    7  A    between atoms: C_11  and  C_13
REMARK    8  A    between atoms: C_11  and  C_14
REMARK                            x       y       z     vdW  Elec       q    Type
REMARK                         _______ _______ _______ _____ _____    ______ ____
ROOT
ATOM      1  C   UNL     1      -6.607  -5.955  -8.149  0.00  0.00    +0.000 C 
ATOM      2  H   UNL     1      -6.149  -5.323  -7.377  0.00  0.00    +0.000 HD
ATOM      3  H   UNL     1      -7.399  -5.351  -8.610  0.00  0.00    +0.000 HD
ENDROOT
BRANCH   1   4
ATOM      4  C   UNL     1      -5.608  -6.336  -9.201  0.00  0.00    +0.000 C 
ATOM      5  C   UNL     1      -3.806  -7.420 -11.207  0.00  0.00    +0.000 C 
ATOM      6  C   UNL     1      -6.175  -6.764 -10.529  0.00  0.00    +0.000 C 
ATOM      7  C   UNL     1      -5.137  -6.818 -11.656  0.00  0.00    +0.000 C 
ATOM      8  C   UNL     1      -3.245  -6.707  -9.973  0.00  0.00    +0.000 C 
ATOM      9  C   UNL     1      -4.285  -6.301  -8.969  0.00  0.00    +0.000 C 
ATOM     10  H   UNL     1      -3.077  -7.339 -12.023  0.00  0.00    +0.000 HD
ATOM     11  H   UNL     1      -6.625  -7.759 -10.424  0.00  0.00    +0.000 HD
ATOM     12  H   UNL     1      -6.975  -6.079 -10.833  0.00  0.00    +0.000 HD
ATOM     13  H   UNL     1      -5.552  -7.378 -12.503  0.00  0.00    +0.000 HD
ATOM     14  H   UNL     1      -4.954  -5.796 -12.017  0.00  0.00    +0.000 HD
ATOM     15  H   UNL     1      -2.736  -5.790 -10.299  0.00  0.00    +0.000 HD
ATOM     16  H   UNL     1      -2.483  -7.317  -9.475  0.00  0.00    +0.000 HD
ATOM     17  H   UNL     1      -3.915  -5.970  -8.002  0.00  0.00    +0.000 HD
BRANCH   5  19
ATOM     18  O   UNL     1      -3.473  -9.469  -9.989  0.00  0.00    +0.000 OA
ATOM     19  C   UNL     1      -3.967  -8.892 -10.953  0.00  0.00    +0.000 C 
ATOM     20  H   UNL     1      -4.553  -9.450 -11.704  0.00  0.00    +0.000 HD
ENDBRANCH   5  19
ENDBRANCH   1   4
BRANCH   1  21
ATOM     21  C   UNL     1      -7.236  -7.184  -7.488  0.00  0.00    +0.000 C 
ATOM     22  H   UNL     1      -7.100  -8.070  -8.117  0.00  0.00    +0.000 HD
ATOM     23  H   UNL     1      -8.316  -7.010  -7.424  0.00  0.00    +0.000 HD
BRANCH  21  24
ATOM     24  C   UNL     1      -6.660  -7.411  -6.084  0.00  0.00    +0.000 C 
ATOM     25  H   UNL     1      -5.744  -6.824  -5.945  0.00  0.00    +0.000 HD
ATOM     26  H   UNL     1      -7.394  -7.034  -5.359  0.00  0.00    +0.000 HD
BRANCH  24  27
ATOM     27  C   UNL     1      -6.350  -8.884  -5.750  0.00  0.00    +0.000 C 
BRANCH  27  28
ATOM     28  C   UNL     1      -7.599  -9.767  -5.778  0.00  0.00    +0.000 C 
ATOM     29  H   UNL     1      -7.494 -10.597  -6.485  0.00  0.00    +0.000 HD
ATOM     30  H   UNL     1      -7.822 -10.179  -4.788  0.00  0.00    +0.000 HD
ATOM     31  H   UNL     1      -8.470  -9.194  -6.118  0.00  0.00    +0.000 HD
ENDBRANCH  27  28
BRANCH  27  32
ATOM     32  C   UNL     1      -5.306  -9.425  -6.733  0.00  0.00    +0.000 C 
ATOM     33  H   UNL     1      -4.300  -9.067  -6.492  0.00  0.00    +0.000 HD
ATOM     34  H   UNL     1      -5.545  -9.124  -7.760  0.00  0.00    +0.000 HD
ATOM     35  H   UNL     1      -5.296 -10.521  -6.729  0.00  0.00    +0.000 HD
ENDBRANCH  27  32
BRANCH  27  36
ATOM     36  O   UNL     1      -5.786  -8.939  -4.438  0.00  0.00    +0.000 OA
ATOM     37  H   UNL     1      -5.427  -9.830  -4.292  0.00  0.00    +0.000 HD
ENDBRANCH  27  36
ENDBRANCH  24  27
ENDBRANCH  21  24
ENDBRANCH   1  21
TORSDOF 8
ENDMDL
MODEL 7
REMARK VINA RESULT:    -5.103      3.537      4.607
REMARK INTER + INTRA:          -7.459
REMARK INTER:                  -6.723
REMARK INTRA:                  -0.736
REMARK UNBOUND:                -0.417
REMARK  Name = 91604
REMARK  8 active torsions:
REMARK  status: ('A' for Active; 'I' for Inactive)
REMARK    1  A    between atoms: O_1  and  C_11
REMARK    2  A    between atoms: C_3  and  C_7
REMARK    3  A    between atoms: C_4  and  C_15
REMARK    4  A    between atoms: C_7  and  C_8
REMARK    5  A    between atoms: C_8  and  C_10
REMARK    6  A    between atoms: C_10  and  C_11
REMARK    7  A    between atoms: C_11  and  C_13
REMARK    8  A    between atoms: C_11  and  C_14
REMARK                            x       y       z     vdW  Elec       q    Type
REMARK                         _______ _______ _______ _____ _____    ______ ____
ROOT
ATOM      1  C   UNL     1       2.397  -7.338  13.846  0.00  0.00    +0.000 C 
ATOM      2  H   UNL     1       1.429  -7.854  13.897  0.00  0.00    +0.000 HD
ATOM      3  H   UNL     1       2.567  -7.110  12.786  0.00  0.00    +0.000 HD
ENDROOT
BRANCH   1   4
ATOM      4  C   UNL     1       2.369  -6.055  14.623  0.00  0.00    +0.000 C 
ATOM      5  C   UNL     1       2.352  -3.397  15.799  0.00  0.00    +0.000 C 
ATOM      6  C   UNL     1       1.167  -5.174  14.406  0.00  0.00    +0.000 C 
ATOM      7  C   UNL     1       1.020  -4.061  15.450  0.00  0.00    +0.000 C 
ATOM      8  C   UNL     1       3.404  -4.423  16.230  0.00  0.00    +0.000 C 
ATOM      9  C   UNL     1       3.364  -5.711  15.459  0.00  0.00    +0.000 C 
ATOM     10  H   UNL     1       2.199  -2.684  16.618  0.00  0.00    +0.000 HD
ATOM     11  H   UNL     1       1.233  -4.713  13.413  0.00  0.00    +0.000 HD
ATOM     12  H   UNL     1       0.253  -5.779  14.420  0.00  0.00    +0.000 HD
ATOM     13  H   UNL     1       0.298  -3.318  15.086  0.00  0.00    +0.000 HD
ATOM     14  H   UNL     1       0.593  -4.490  16.366  0.00  0.00    +0.000 HD
ATOM     15  H   UNL     1       3.237  -4.675  17.286  0.00  0.00    +0.000 HD
ATOM     16  H   UNL     1       4.415  -4.002  16.174  0.00  0.00    +0.000 HD
ATOM     17  H   UNL     1       4.207  -6.382  15.600  0.00  0.00    +0.000 HD
BRANCH   5  19
ATOM     18  O   UNL     1       4.007  -2.223  14.504  0.00  0.00    +0.000 OA
ATOM     19  C   UNL     1       2.841  -2.580  14.636  0.00  0.00    +0.000 C 
ATOM     20  H   UNL     1       2.076  -2.293  13.893  0.00  0.00    +0.000 HD
ENDBRANCH   5  19
ENDBRANCH   1   4
BRANCH   1  21
ATOM     21  C   UNL     1       3.499  -8.280  14.338  0.00  0.00    +0.000 C 
ATOM     22  H   UNL     1       3.102  -9.289  14.489  0.00  0.00    +0.000 HD
ATOM     23  H   UNL     1       3.823  -7.923  15.322  0.00  0.00    +0.000 HD
BRANCH  21  24
ATOM     24  C   UNL     1       4.687  -8.293  13.368  0.00  0.00    +0.000 C 
ATOM     25  H   UNL     1       4.697  -9.221  12.785  0.00  0.00    +0.000 HD
ATOM     26  H   UNL     1       4.544  -7.469  12.657  0.00  0.00    +0.000 HD
BRANCH  24  27
ATOM     27  C   UNL     1       6.064  -8.126  14.042  0.00  0.00    +0.000 C 
BRANCH  27  28
ATOM     28  C   UNL     1       6.582  -6.688  13.972  0.00  0.00    +0.000 C 
ATOM     29  H   UNL     1       6.988  -6.450  12.983  0.00  0.00    +0.000 HD
ATOM     30  H   UNL     1       5.794  -5.966  14.208  0.00  0.00    +0.000 HD
ATOM     31  H   UNL     1       7.408  -6.540  14.677  0.00  0.00    +0.000 HD
ENDBRANCH  27  28
BRANCH  27  32
ATOM     32  C   UNL     1       5.979  -8.579  15.504  0.00  0.00    +0.000 C 
ATOM     33  H   UNL     1       5.304  -9.433  15.624  0.00  0.00    +0.000 HD
ATOM     34  H   UNL     1       5.624  -7.763  16.144  0.00  0.00    +0.000 HD
ATOM     35  H   UNL     1       6.968  -8.860  15.884  0.00  0.00    +0.000 HD
ENDBRANCH  27  32
BRANCH  27  36
ATOM     36  O   UNL     1       6.998  -8.977  13.374  0.00  0.00    +0.000 OA
ATOM     37  H   UNL     1       7.215  -8.583  12.512  0.00  0.00    +0.000 HD
ENDBRANCH  27  36
ENDBRANCH  24  27
ENDBRANCH  21  24
ENDBRANCH   1  21
TORSDOF 8
ENDMDL
MODEL 8
REMARK VINA RESULT:    -5.047     22.900     25.368
REMARK INTER + INTRA:          -7.382
REMARK INTER:                  -6.925
REMARK INTRA:                  -0.457
REMARK UNBOUND:                -0.417
REMARK  Name = 91604
REMARK  8 active torsions:
REMARK  status: ('A' for Active; 'I' for Inactive)
REMARK    1  A    between atoms: O_1  and  C_11
REMARK    2  A    between atoms: C_3  and  C_7
REMARK    3  A    between atoms: C_4  and  C_15
REMARK    4  A    between atoms: C_7  and  C_8
REMARK    5  A    between atoms: C_8  and  C_10
REMARK    6  A    between atoms: C_10  and  C_11
REMARK    7  A    between atoms: C_11  and  C_13
REMARK    8  A    between atoms: C_11  and  C_14
REMARK                            x       y       z     vdW  Elec       q    Type
REMARK                         _______ _______ _______ _____ _____    ______ ____
ROOT
ATOM      1  C   UNL     1      10.382 -10.372  -7.284  0.00  0.00    +0.000 C 
ATOM      2  H   UNL     1       9.826  -9.427  -7.321  0.00  0.00    +0.000 HD
ATOM      3  H   UNL     1      11.035 -10.378  -8.166  0.00  0.00    +0.000 HD
ENDROOT
BRANCH   1   4
ATOM      4  C   UNL     1      11.229 -10.457  -6.049  0.00  0.00    +0.000 C 
ATOM      5  C   UNL     1      12.550 -10.606  -3.464  0.00  0.00    +0.000 C 
ATOM      6  C   UNL     1      11.093 -11.718  -5.237  0.00  0.00    +0.000 C 
ATOM      7  C   UNL     1      12.200 -11.903  -4.192  0.00  0.00    +0.000 C 
ATOM      8  C   UNL     1      12.896  -9.479  -4.442  0.00  0.00    +0.000 C 
ATOM      9  C   UNL     1      12.056  -9.461  -5.687  0.00  0.00    +0.000 C 
ATOM     10  H   UNL     1      13.411 -10.779  -2.807  0.00  0.00    +0.000 HD
ATOM     11  H   UNL     1      10.125 -11.710  -4.720  0.00  0.00    +0.000 HD
ATOM     12  H   UNL     1      11.098 -12.592  -5.899  0.00  0.00    +0.000 HD
ATOM     13  H   UNL     1      11.897 -12.681  -3.480  0.00  0.00    +0.000 HD
ATOM     14  H   UNL     1      13.102 -12.275  -4.697  0.00  0.00    +0.000 HD
ATOM     15  H   UNL     1      13.941  -9.599  -4.760  0.00  0.00    +0.000 HD
ATOM     16  H   UNL     1      12.837  -8.499  -3.955  0.00  0.00    +0.000 HD
ATOM     17  H   UNL     1      12.138  -8.574  -6.309  0.00  0.00    +0.000 HD
BRANCH   5  19
ATOM     18  O   UNL     1      11.406  -9.155  -1.921  0.00  0.00    +0.000 OA
ATOM     19  C   UNL     1      11.422 -10.204  -2.557  0.00  0.00    +0.000 C 
ATOM     20  H   UNL     1      10.591 -10.926  -2.471  0.00  0.00    +0.000 HD
ENDBRANCH   5  19
ENDBRANCH   1   4
BRANCH   1  21
ATOM     21  C   UNL     1       9.399 -11.542  -7.383  0.00  0.00    +0.000 C 
ATOM     22  H   UNL     1       8.568 -11.405  -6.683  0.00  0.00    +0.000 HD
ATOM     23  H   UNL     1       9.928 -12.447  -7.065  0.00  0.00    +0.000 HD
BRANCH  21  24
ATOM     24  C   UNL     1       8.888 -11.713  -8.819  0.00  0.00    +0.000 C 
ATOM     25  H   UNL     1       8.002 -11.089  -8.989  0.00  0.00    +0.000 HD
ATOM     26  H   UNL     1       9.671 -11.347  -9.496  0.00  0.00    +0.000 HD
BRANCH  24  27
ATOM     27  C   UNL     1       8.542 -13.165  -9.206  0.00  0.00    +0.000 C 
BRANCH  27  28
ATOM     28  C   UNL     1       8.621 -13.405 -10.715  0.00  0.00    +0.000 C 
ATOM     29  H   UNL     1       7.673 -13.778 -11.118  0.00  0.00    +0.000 HD
ATOM     30  H   UNL     1       8.892 -12.491 -11.253  0.00  0.00    +0.000 HD
ATOM     31  H   UNL     1       9.366 -14.175 -10.945  0.00  0.00    +0.000 HD
ENDBRANCH  27  28
BRANCH  27  32
ATOM     32  C   UNL     1       9.482 -14.129  -8.475  0.00  0.00    +0.000 C 
ATOM     33  H   UNL     1       9.902 -14.878  -9.154  0.00  0.00    +0.000 HD
ATOM     34  H   UNL     1       8.954 -14.650  -7.667  0.00  0.00    +0.000 HD
ATOM     35  H   UNL     1      10.307 -13.586  -8.000  0.00  0.00    +0.000 HD
ENDBRANCH  27  32
BRANCH  27  36
ATOM     36  O   UNL     1       7.208 -13.440  -8.773  0.00  0.00    +0.000 OA
ATOM     37  H   UNL     1       6.612 -13.370  -9.538  0.00  0.00    +0.000 HD
ENDBRANCH  27  36
ENDBRANCH  24  27
ENDBRANCH  21  24
ENDBRANCH   1  21
TORSDOF 8
ENDMDL
MODEL 9
REMARK VINA RESULT:    -4.965      2.547      4.787
REMARK INTER + INTRA:          -7.269
REMARK INTER:                  -6.182
REMARK INTRA:                  -1.087
REMARK UNBOUND:                -0.417
REMARK  Name = 91604
REMARK  8 active torsions:
REMARK  status: ('A' for Active; 'I' for Inactive)
REMARK    1  A    between atoms: O_1  and  C_11
REMARK    2  A    between atoms: C_3  and  C_7
REMARK    3  A    between atoms: C_4  and  C_15
REMARK    4  A    between atoms: C_7  and  C_8
REMARK    5  A    between atoms: C_8  and  C_10
REMARK    6  A    between atoms: C_10  and  C_11
REMARK    7  A    between atoms: C_11  and  C_13
REMARK    8  A    between atoms: C_11  and  C_14
REMARK                            x       y       z     vdW  Elec       q    Type
REMARK                         _______ _______ _______ _____ _____    ______ ____
ROOT
ATOM      1  C   UNL     1       2.644  -7.894  13.147  0.00  0.00    +0.000 C 
ATOM      2  H   UNL     1       1.854  -8.632  12.960  0.00  0.00    +0.000 HD
ATOM      3  H   UNL     1       2.794  -7.358  12.201  0.00  0.00    +0.000 HD
ENDROOT
BRANCH   1   4
ATOM      4  C   UNL     1       2.231  -6.913  14.204  0.00  0.00    +0.000 C 
ATOM      5  C   UNL     1       1.113  -5.206  16.274  0.00  0.00    +0.000 C 
ATOM      6  C   UNL     1       2.098  -7.460  15.601  0.00  0.00    +0.000 C 
ATOM      7  C   UNL     1       2.007  -6.377  16.683  0.00  0.00    +0.000 C 
ATOM      8  C   UNL     1       1.537  -4.609  14.929  0.00  0.00    +0.000 C 
ATOM      9  C   UNL     1       1.989  -5.622  13.918  0.00  0.00    +0.000 C 
ATOM     10  H   UNL     1       1.168  -4.423  17.040  0.00  0.00    +0.000 HD
ATOM     11  H   UNL     1       1.199  -8.085  15.658  0.00  0.00    +0.000 HD
ATOM     12  H   UNL     1       2.954  -8.104  15.834  0.00  0.00    +0.000 HD
ATOM     13  H   UNL     1       1.652  -6.830  17.617  0.00  0.00    +0.000 HD
ATOM     14  H   UNL     1       3.016  -5.993  16.884  0.00  0.00    +0.000 HD
ATOM     15  H   UNL     1       2.380  -3.925  15.099  0.00  0.00    +0.000 HD
ATOM     16  H   UNL     1       0.734  -4.001  14.495  0.00  0.00    +0.000 HD
ATOM     17  H   UNL     1       2.112  -5.263  12.899  0.00  0.00    +0.000 HD
BRANCH   5  19
ATOM     18  O   UNL     1      -0.820  -6.396  17.073  0.00  0.00    +0.000 OA
ATOM     19  C   UNL     1      -0.324  -5.642  16.242  0.00  0.00    +0.000 C 
ATOM     20  H   UNL     1      -0.927  -5.256  15.401  0.00  0.00    +0.000 HD
ENDBRANCH   5  19
ENDBRANCH   1   4
BRANCH   1  21
ATOM     21  C   UNL     1       3.938  -8.623  13.520  0.00  0.00    +0.000 C 
ATOM     22  H   UNL     1       4.019  -9.567  12.971  0.00  0.00    +0.000 HD
ATOM     23  H   UNL     1       3.877  -8.884  14.582  0.00  0.00    +0.000 HD
BRANCH  21  24
ATOM     24  C   UNL     1       5.163  -7.733  13.270  0.00  0.00    +0.000 C 
ATOM     25  H   UNL     1       5.851  -8.214  12.565  0.00  0.00    +0.000 HD
ATOM     26  H   UNL     1       4.811  -6.809  12.793  0.00  0.00    +0.000 HD
BRANCH  24  27
ATOM     27  C   UNL     1       5.952  -7.359  14.542  0.00  0.00    +0.000 C 
BRANCH  27  28
ATOM     28  C   UNL     1       5.617  -5.954  15.048  0.00  0.00    +0.000 C 
ATOM     29  H   UNL     1       6.158  -5.715  15.970  0.00  0.00    +0.000 HD
ATOM     30  H   UNL     1       5.852  -5.191  14.299  0.00  0.00    +0.000 HD
ATOM     31  H   UNL     1       4.553  -5.877  15.298  0.00  0.00    +0.000 HD
ENDBRANCH  27  28
BRANCH  27  32
ATOM     32  C   UNL     1       5.672  -8.390  15.641  0.00  0.00    +0.000 C 
ATOM     33  H   UNL     1       6.495  -9.104  15.744  0.00  0.00    +0.000 HD
ATOM     34  H   UNL     1       4.753  -8.948  15.427  0.00  0.00    +0.000 HD
ATOM     35  H   UNL     1       5.513  -7.898  16.608  0.00  0.00    +0.000 HD
ENDBRANCH  27  32
BRANCH  27  36
ATOM     36  O   UNL     1       7.347  -7.411  14.238  0.00  0.00    +0.000 OA
ATOM     37  H   UNL     1       7.715  -6.514  14.316  0.00  0.00    +0.000 HD
ENDBRANCH  27  36
ENDBRANCH  24  27
ENDBRANCH  21  24
ENDBRANCH   1  21
TORSDOF 8
ENDMDL
MODEL 10
REMARK VINA RESULT:    -4.873     16.414     17.831
REMARK INTER + INTRA:          -7.142
REMARK INTER:                  -6.725
REMARK INTRA:                  -0.417
REMARK UNBOUND:                -0.417
REMARK  Name = 91604
REMARK  8 active torsions:
REMARK  status: ('A' for Active; 'I' for Inactive)
REMARK    1  A    between atoms: O_1  and  C_11
REMARK    2  A    between atoms: C_3  and  C_7
REMARK    3  A    between atoms: C_4  and  C_15
REMARK    4  A    between atoms: C_7  and  C_8
REMARK    5  A    between atoms: C_8  and  C_10
REMARK    6  A    between atoms: C_10  and  C_11
REMARK    7  A    between atoms: C_11  and  C_13
REMARK    8  A    between atoms: C_11  and  C_14
REMARK                            x       y       z     vdW  Elec       q    Type
REMARK                         _______ _______ _______ _____ _____    ______ ____
ROOT
ATOM      1  C   UNL     1       1.036  10.747  11.428  0.00  0.00    +0.000 C 
ATOM      2  H   UNL     1       1.113  11.814  11.186  0.00  0.00    +0.000 HD
ATOM      3  H   UNL     1       0.906  10.225  10.471  0.00  0.00    +0.000 HD
ENDROOT
BRANCH   1   4
ATOM      4  C   UNL     1       2.287  10.248  12.089  0.00  0.00    +0.000 C 
ATOM      5  C   UNL     1       4.707   9.602  13.565  0.00  0.00    +0.000 C 
ATOM      6  C   UNL     1       2.177   9.922  13.555  0.00  0.00    +0.000 C 
ATOM      7  C   UNL     1       3.361   9.114  14.100  0.00  0.00    +0.000 C 
ATOM      8  C   UNL     1       4.728   9.649  12.034  0.00  0.00    +0.000 C 
ATOM      9  C   UNL     1       3.439  10.107  11.412  0.00  0.00    +0.000 C 
ATOM     10  H   UNL     1       5.500   8.926  13.907  0.00  0.00    +0.000 HD
ATOM     11  H   UNL     1       2.101  10.856  14.127  0.00  0.00    +0.000 HD
ATOM     12  H   UNL     1       1.259   9.354  13.744  0.00  0.00    +0.000 HD
ATOM     13  H   UNL     1       3.343   9.143  15.197  0.00  0.00    +0.000 HD
ATOM     14  H   UNL     1       3.231   8.061  13.813  0.00  0.00    +0.000 HD
ATOM     15  H   UNL     1       4.927   8.638  11.654  0.00  0.00    +0.000 HD
ATOM     16  H   UNL     1       5.547  10.279  11.668  0.00  0.00    +0.000 HD
ATOM     17  H   UNL     1       3.473  10.337  10.350  0.00  0.00    +0.000 HD
BRANCH   5  19
ATOM     18  O   UNL     1       4.906  11.214  15.340  0.00  0.00    +0.000 OA
ATOM     19  C   UNL     1       5.037  10.945  14.150  0.00  0.00    +0.000 C 
ATOM     20  H   UNL     1       5.398  11.707  13.437  0.00  0.00    +0.000 HD
ENDBRANCH   5  19
ENDBRANCH   1   4
BRANCH   1  21
ATOM     21  C   UNL     1      -0.201  10.512  12.297  0.00  0.00    +0.000 C 
ATOM     22  H   UNL     1      -0.452  11.417  12.860  0.00  0.00    +0.000 HD
ATOM     23  H   UNL     1       0.055   9.746  13.038  0.00  0.00    +0.000 HD
BRANCH  21  24
ATOM     24  C   UNL     1      -1.391  10.042  11.449  0.00  0.00    +0.000 C 
ATOM     25  H   UNL     1      -1.284  10.385  10.414  0.00  0.00    +0.000 HD
ATOM     26  H   UNL     1      -1.368   8.945  11.426  0.00  0.00    +0.000 HD
BRANCH  24  27
ATOM     27  C   UNL     1      -2.768  10.496  11.973  0.00  0.00    +0.000 C 
BRANCH  27  28
ATOM     28  C   UNL     1      -2.662  11.365  13.227  0.00  0.00    +0.000 C 
ATOM     29  H   UNL     1      -2.465  10.766  14.122  0.00  0.00    +0.000 HD
ATOM     30  H   UNL     1      -1.871  12.115  13.130  0.00  0.00    +0.000 HD
ATOM     31  H   UNL     1      -3.609  11.884  13.418  0.00  0.00    +0.000 HD
ENDBRANCH  27  28
BRANCH  27  32
ATOM     32  C   UNL     1      -3.511  11.258  10.870  0.00  0.00    +0.000 C 
ATOM     33  H   UNL     1      -4.208  11.993  11.285  0.00  0.00    +0.000 HD
ATOM     34  H   UNL     1      -4.074  10.568  10.231  0.00  0.00    +0.000 HD
ATOM     35  H   UNL     1      -2.805  11.780  10.212  0.00  0.00    +0.000 HD
ENDBRANCH  27  32
BRANCH  27  36
ATOM     36  O   UNL     1      -3.534   9.332  12.292  0.00  0.00    +0.000 OA
ATOM     37  H   UNL     1      -3.032   8.545  12.016  0.00  0.00    +0.000 HD
ENDBRANCH  27  36
ENDBRANCH  24  27
ENDBRANCH  21  24
ENDBRANCH   1  21
TORSDOF 8
ENDMDL
