MODEL 1
REMARK VINA RESULT:    -4.459      0.000      0.000
REMARK INTER + INTRA:          -5.246
REMARK INTER:                  -5.145
REMARK INTRA:                  -0.101
REMARK UNBOUND:                -0.136
REMARK  Name = 26447
REMARK  4 active torsions:
REMARK  status: ('A' for Active; 'I' for Inactive)
REMARK    1  A    between atoms: C_2  and  C_6
REMARK    2  A    between atoms: C_4  and  C_9
REMARK    3  A    between atoms: C_6  and  C_10
REMARK    4  A    between atoms: C_6  and  C_11
REMARK                            x       y       z     vdW  Elec       q    Type
REMARK                         _______ _______ _______ _____ _____    ______ ____
ROOT
ATOM      1  O   UNL     1      17.932  10.902   0.113  0.00  0.00    +0.000 OA
ATOM      2  C   UNL     1      19.296   9.153   1.032  0.00  0.00    +0.000 C 
ATOM      3  C   UNL     1      19.187   8.497   2.410  0.00  0.00    +0.000 C 
ATOM      4  C   UNL     1      16.649   8.332   2.213  0.00  0.00    +0.000 C 
ATOM      5  C   UNL     1      17.954   7.604   2.559  0.00  0.00    +0.000 C 
ATOM      6  C   UNL     1      16.720   8.959   0.820  0.00  0.00    +0.000 C 
ATOM      7  C   UNL     1      17.974   9.791   0.640  0.00  0.00    +0.000 C 
ATOM      8  H   UNL     1      20.033   9.964   1.113  0.00  0.00    +0.000 HD
ATOM      9  H   UNL     1      19.117   9.298   3.159  0.00  0.00    +0.000 HD
ATOM     10  H   UNL     1      20.087   7.943   2.688  0.00  0.00    +0.000 HD
ATOM     11  H   UNL     1      15.842   7.588   2.208  0.00  0.00    +0.000 HD
ATOM     12  H   UNL     1      18.062   6.728   1.908  0.00  0.00    +0.000 HD
ATOM     13  H   UNL     1      17.908   7.220   3.586  0.00  0.00    +0.000 HD
ATOM     14  H   UNL     1      15.845   9.593   0.638  0.00  0.00    +0.000 HD
ATOM     15  H   UNL     1      16.723   8.179   0.050  0.00  0.00    +0.000 HD
ENDROOT
BRANCH   4  16
ATOM     16  C   UNL     1      16.279   9.377   3.272  0.00  0.00    +0.000 C 
ATOM     17  H   UNL     1      16.102  10.353   2.808  0.00  0.00    +0.000 HD
ATOM     18  H   UNL     1      15.382   9.100   3.834  0.00  0.00    +0.000 HD
ATOM     19  H   UNL     1      17.096   9.496   3.991  0.00  0.00    +0.000 HD
ENDBRANCH   4  16
BRANCH   2  20
ATOM     20  C   UNL     1      19.742   8.176  -0.053  0.00  0.00    +0.000 C 
ATOM     21  H   UNL     1      18.872   7.702  -0.525  0.00  0.00    +0.000 HD
BRANCH  20  22
ATOM     22  C   UNL     1      20.499   8.909  -1.160  0.00  0.00    +0.000 C 
ATOM     23  H   UNL     1      21.582   8.776  -1.059  0.00  0.00    +0.000 HD
ATOM     24  H   UNL     1      20.209   8.528  -2.144  0.00  0.00    +0.000 HD
ATOM     25  H   UNL     1      20.283   9.981  -1.163  0.00  0.00    +0.000 HD
ENDBRANCH  20  22
BRANCH  20  26
ATOM     26  C   UNL     1      20.605   7.066   0.542  0.00  0.00    +0.000 C 
ATOM     27  H   UNL     1      21.502   6.884  -0.060  0.00  0.00    +0.000 HD
ATOM     28  H   UNL     1      20.044   6.126   0.591  0.00  0.00    +0.000 HD
ATOM     29  H   UNL     1      20.909   7.290   1.568  0.00  0.00    +0.000 HD
ENDBRANCH  20  26
ENDBRANCH   2  20
TORSDOF 4
ENDMDL
MODEL 2
REMARK VINA RESULT:    -4.383      2.581      5.078
REMARK INTER + INTRA:          -5.159
REMARK INTER:                  -5.010
REMARK INTRA:                  -0.149
REMARK UNBOUND:                -0.136
REMARK  Name = 26447
REMARK  4 active torsions:
REMARK  status: ('A' for Active; 'I' for Inactive)
REMARK    1  A    between atoms: C_2  and  C_6
REMARK    2  A    between atoms: C_4  and  C_9
REMARK    3  A    between atoms: C_6  and  C_10
REMARK    4  A    between atoms: C_6  and  C_11
REMARK                            x       y       z     vdW  Elec       q    Type
REMARK                         _______ _______ _______ _____ _____    ______ ____
ROOT
ATOM      1  O   UNL     1      18.549   9.026   3.902  0.00  0.00    +0.000 OA
ATOM      2  C   UNL     1      16.564  10.376   3.969  0.00  0.00    +0.000 C 
ATOM      3  C   UNL     1      15.897  11.130   2.817  0.00  0.00    +0.000 C 
ATOM      4  C   UNL     1      16.179   9.137   1.249  0.00  0.00    +0.000 C 
ATOM      5  C   UNL     1      15.226  10.208   1.798  0.00  0.00    +0.000 C 
ATOM      6  C   UNL     1      16.824   8.341   2.384  0.00  0.00    +0.000 C 
ATOM      7  C   UNL     1      17.432   9.248   3.435  0.00  0.00    +0.000 C 
ATOM      8  H   UNL     1      17.233  11.083   4.479  0.00  0.00    +0.000 HD
ATOM      9  H   UNL     1      16.676  11.703   2.294  0.00  0.00    +0.000 HD
ATOM     10  H   UNL     1      15.188  11.887   3.161  0.00  0.00    +0.000 HD
ATOM     11  H   UNL     1      15.586   8.441   0.643  0.00  0.00    +0.000 HD
ATOM     12  H   UNL     1      14.364   9.718   2.266  0.00  0.00    +0.000 HD
ATOM     13  H   UNL     1      14.827  10.811   0.973  0.00  0.00    +0.000 HD
ATOM     14  H   UNL     1      17.605   7.678   1.994  0.00  0.00    +0.000 HD
ATOM     15  H   UNL     1      16.079   7.709   2.880  0.00  0.00    +0.000 HD
ENDROOT
BRANCH   4  16
ATOM     16  C   UNL     1      17.240   9.737   0.322  0.00  0.00    +0.000 C 
ATOM     17  H   UNL     1      17.946  10.354   0.887  0.00  0.00    +0.000 HD
ATOM     18  H   UNL     1      17.811   8.970  -0.210  0.00  0.00    +0.000 HD
ATOM     19  H   UNL     1      16.770  10.379  -0.431  0.00  0.00    +0.000 HD
ENDBRANCH   4  16
BRANCH   2  20
ATOM     20  C   UNL     1      15.558   9.822   4.974  0.00  0.00    +0.000 C 
ATOM     21  H   UNL     1      14.984   8.998   4.531  0.00  0.00    +0.000 HD
BRANCH  20  22
ATOM     22  C   UNL     1      16.275   9.254   6.198  0.00  0.00    +0.000 C 
ATOM     23  H   UNL     1      16.659   8.246   6.003  0.00  0.00    +0.000 HD
ATOM     24  H   UNL     1      17.126   9.885   6.474  0.00  0.00    +0.000 HD
ATOM     25  H   UNL     1      15.620   9.210   7.073  0.00  0.00    +0.000 HD
ENDBRANCH  20  22
BRANCH  20  26
ATOM     26  C   UNL     1      14.563  10.903   5.391  0.00  0.00    +0.000 C 
ATOM     27  H   UNL     1      14.273  10.803   6.443  0.00  0.00    +0.000 HD
ATOM     28  H   UNL     1      13.648  10.838   4.790  0.00  0.00    +0.000 HD
ATOM     29  H   UNL     1      14.959  11.909   5.229  0.00  0.00    +0.000 HD
ENDBRANCH  20  26
ENDBRANCH   2  20
TORSDOF 4
ENDMDL
MODEL 3
REMARK VINA RESULT:    -4.197      2.382      5.131
REMARK INTER + INTRA:          -4.946
REMARK INTER:                  -4.786
REMARK INTRA:                  -0.160
REMARK UNBOUND:                -0.136
REMARK  Name = 26447
REMARK  4 active torsions:
REMARK  status: ('A' for Active; 'I' for Inactive)
REMARK    1  A    between atoms: C_2  and  C_6
REMARK    2  A    between atoms: C_4  and  C_9
REMARK    3  A    between atoms: C_6  and  C_10
REMARK    4  A    between atoms: C_6  and  C_11
REMARK                            x       y       z     vdW  Elec       q    Type
REMARK                         _______ _______ _______ _____ _____    ______ ____
ROOT
ATOM      1  O   UNL     1      17.380  10.549   4.918  0.00  0.00    +0.000 OA
ATOM      2  C   UNL     1      15.997  10.974   3.002  0.00  0.00    +0.000 C 
ATOM      3  C   UNL     1      16.262  10.592   1.544  0.00  0.00    +0.000 C 
ATOM      4  C   UNL     1      17.035   8.256   2.219  0.00  0.00    +0.000 C 
ATOM      5  C   UNL     1      16.149   9.090   1.282  0.00  0.00    +0.000 C 
ATOM      6  C   UNL     1      16.755   8.591   3.685  0.00  0.00    +0.000 C 
ATOM      7  C   UNL     1      16.797  10.085   3.939  0.00  0.00    +0.000 C 
ATOM      8  H   UNL     1      16.363  12.001   3.142  0.00  0.00    +0.000 HD
ATOM      9  H   UNL     1      17.287  10.903   1.295  0.00  0.00    +0.000 HD
ATOM     10  H   UNL     1      15.633  11.143   0.841  0.00  0.00    +0.000 HD
ATOM     11  H   UNL     1      16.786   7.199   2.061  0.00  0.00    +0.000 HD
ATOM     12  H   UNL     1      15.104   8.779   1.403  0.00  0.00    +0.000 HD
ATOM     13  H   UNL     1      16.412   8.883   0.238  0.00  0.00    +0.000 HD
ATOM     14  H   UNL     1      17.484   8.100   4.338  0.00  0.00    +0.000 HD
ATOM     15  H   UNL     1      15.761   8.231   3.977  0.00  0.00    +0.000 HD
ENDROOT
BRANCH   4  16
ATOM     16  C   UNL     1      18.522   8.414   1.889  0.00  0.00    +0.000 C 
ATOM     17  H   UNL     1      18.796   9.473   1.831  0.00  0.00    +0.000 HD
ATOM     18  H   UNL     1      19.167   7.937   2.634  0.00  0.00    +0.000 HD
ATOM     19  H   UNL     1      18.748   7.960   0.919  0.00  0.00    +0.000 HD
ENDBRANCH   4  16
BRANCH   2  20
ATOM     20  C   UNL     1      14.517  10.915   3.368  0.00  0.00    +0.000 C 
ATOM     21  H   UNL     1      14.185   9.873   3.461  0.00  0.00    +0.000 HD
BRANCH  20  22
ATOM     22  C   UNL     1      14.270  11.579   4.722  0.00  0.00    +0.000 C 
ATOM     23  H   UNL     1      13.978  12.629   4.605  0.00  0.00    +0.000 HD
ATOM     24  H   UNL     1      13.464  11.069   5.261  0.00  0.00    +0.000 HD
ATOM     25  H   UNL     1      15.153  11.537   5.366  0.00  0.00    +0.000 HD
ENDBRANCH  20  22
BRANCH  20  26
ATOM     26  C   UNL     1      13.666  11.574   2.285  0.00  0.00    +0.000 C 
ATOM     27  H   UNL     1      13.915  11.194   1.288  0.00  0.00    +0.000 HD
ATOM     28  H   UNL     1      13.828  12.658   2.274  0.00  0.00    +0.000 HD
ATOM     29  H   UNL     1      12.596  11.430   2.460  0.00  0.00    +0.000 HD
ENDBRANCH  20  26
ENDBRANCH   2  20
TORSDOF 4
ENDMDL
MODEL 4
REMARK VINA RESULT:    -4.196     10.810     12.721
REMARK INTER + INTRA:          -4.945
REMARK INTER:                  -4.849
REMARK INTRA:                  -0.096
REMARK UNBOUND:                -0.136
REMARK  Name = 26447
REMARK  4 active torsions:
REMARK  status: ('A' for Active; 'I' for Inactive)
REMARK    1  A    between atoms: C_2  and  C_6
REMARK    2  A    between atoms: C_4  and  C_9
REMARK    3  A    between atoms: C_6  and  C_10
REMARK    4  A    between atoms: C_6  and  C_11
REMARK                            x       y       z     vdW  Elec       q    Type
REMARK                         _______ _______ _______ _____ _____    ______ ____
ROOT
ATOM      1  O   UNL     1      11.227  12.905  -4.348  0.00  0.00    +0.000 OA
ATOM      2  C   UNL     1       8.964  13.704  -4.289  0.00  0.00    +0.000 C 
ATOM      3  C   UNL     1       8.216  14.498  -5.362  0.00  0.00    +0.000 C 
ATOM      4  C   UNL     1       9.118  12.993  -7.213  0.00  0.00    +0.000 C 
ATOM      5  C   UNL     1       7.884  13.672  -6.605  0.00  0.00    +0.000 C 
ATOM      6  C   UNL     1       9.858  12.157  -6.167  0.00  0.00    +0.000 C 
ATOM      7  C   UNL     1      10.130  12.947  -4.904  0.00  0.00    +0.000 C 
ATOM      8  H   UNL     1       9.388  14.429  -3.581  0.00  0.00    +0.000 HD
ATOM      9  H   UNL     1       8.859  15.333  -5.672  0.00  0.00    +0.000 HD
ATOM     10  H   UNL     1       7.312  14.979  -4.979  0.00  0.00    +0.000 HD
ATOM     11  H   UNL     1       8.772  12.315  -8.004  0.00  0.00    +0.000 HD
ATOM     12  H   UNL     1       7.143  12.907  -6.344  0.00  0.00    +0.000 HD
ATOM     13  H   UNL     1       7.407  14.319  -7.353  0.00  0.00    +0.000 HD
ATOM     14  H   UNL     1      10.809  11.791  -6.569  0.00  0.00    +0.000 HD
ATOM     15  H   UNL     1       9.263  11.278  -5.890  0.00  0.00    +0.000 HD
ENDROOT
BRANCH   4  16
ATOM     16  C   UNL     1      10.058  14.004  -7.878  0.00  0.00    +0.000 C 
ATOM     17  H   UNL     1      11.104  13.748  -7.682  0.00  0.00    +0.000 HD
ATOM     18  H   UNL     1       9.918  14.051  -8.963  0.00  0.00    +0.000 HD
ATOM     19  H   UNL     1       9.882  15.008  -7.479  0.00  0.00    +0.000 HD
ENDBRANCH   4  16
BRANCH   2  20
ATOM     20  C   UNL     1       8.059  12.734  -3.533  0.00  0.00    +0.000 C 
ATOM     21  H   UNL     1       7.621  12.000  -4.222  0.00  0.00    +0.000 HD
BRANCH  20  22
ATOM     22  C   UNL     1       8.859  11.946  -2.498  0.00  0.00    +0.000 C 
ATOM     23  H   UNL     1       8.817  10.869  -2.696  0.00  0.00    +0.000 HD
ATOM     24  H   UNL     1       9.913  12.245  -2.515  0.00  0.00    +0.000 HD
ATOM     25  H   UNL     1       8.499  12.124  -1.480  0.00  0.00    +0.000 HD
ENDBRANCH  20  22
BRANCH  20  26
ATOM     26  C   UNL     1       6.908  13.482  -2.865  0.00  0.00    +0.000 C 
ATOM     27  H   UNL     1       6.083  12.808  -2.606  0.00  0.00    +0.000 HD
ATOM     28  H   UNL     1       6.506  14.251  -3.535  0.00  0.00    +0.000 HD
ATOM     29  H   UNL     1       7.230  14.007  -1.961  0.00  0.00    +0.000 HD
ENDBRANCH  20  26
ENDBRANCH   2  20
TORSDOF 4
ENDMDL
MODEL 5
REMARK VINA RESULT:    -4.196     29.612     30.794
REMARK INTER + INTRA:          -4.945
REMARK INTER:                  -4.784
REMARK INTRA:                  -0.161
REMARK UNBOUND:                -0.136
REMARK  Name = 26447
REMARK  4 active torsions:
REMARK  status: ('A' for Active; 'I' for Inactive)
REMARK    1  A    between atoms: C_2  and  C_6
REMARK    2  A    between atoms: C_4  and  C_9
REMARK    3  A    between atoms: C_6  and  C_10
REMARK    4  A    between atoms: C_6  and  C_11
REMARK                            x       y       z     vdW  Elec       q    Type
REMARK                         _______ _______ _______ _____ _____    ______ ____
ROOT
ATOM      1  O   UNL     1      -3.653 -10.107 -12.257  0.00  0.00    +0.000 OA
ATOM      2  C   UNL     1      -3.321  -9.360  -9.999  0.00  0.00    +0.000 C 
ATOM      3  C   UNL     1      -2.812  -7.998  -9.522  0.00  0.00    +0.000 C 
ATOM      4  C   UNL     1      -4.298  -6.773 -11.195  0.00  0.00    +0.000 C 
ATOM      5  C   UNL     1      -3.817  -6.866  -9.741  0.00  0.00    +0.000 C 
ATOM      6  C   UNL     1      -4.851  -8.114 -11.680  0.00  0.00    +0.000 C 
ATOM      7  C   UNL     1      -3.890  -9.252 -11.404  0.00  0.00    +0.000 C 
ATOM      8  H   UNL     1      -2.453 -10.031 -10.054  0.00  0.00    +0.000 HD
ATOM      9  H   UNL     1      -1.904  -7.758 -10.093  0.00  0.00    +0.000 HD
ATOM     10  H   UNL     1      -2.483  -8.010  -8.480  0.00  0.00    +0.000 HD
ATOM     11  H   UNL     1      -5.113  -6.038 -11.232  0.00  0.00    +0.000 HD
ATOM     12  H   UNL     1      -4.682  -7.019  -9.084  0.00  0.00    +0.000 HD
ATOM     13  H   UNL     1      -3.364  -5.915  -9.435  0.00  0.00    +0.000 HD
ATOM     14  H   UNL     1      -5.060  -8.078 -12.755  0.00  0.00    +0.000 HD
ATOM     15  H   UNL     1      -5.796  -8.343 -11.172  0.00  0.00    +0.000 HD
ENDROOT
BRANCH   4  16
ATOM     16  C   UNL     1      -3.198  -6.258 -12.129  0.00  0.00    +0.000 C 
ATOM     17  H   UNL     1      -2.364  -5.842 -11.554  0.00  0.00    +0.000 HD
ATOM     18  H   UNL     1      -2.802  -7.045 -12.779  0.00  0.00    +0.000 HD
ATOM     19  H   UNL     1      -3.585  -5.462 -12.773  0.00  0.00    +0.000 HD
ENDBRANCH   4  16
BRANCH   2  20
ATOM     20  C   UNL     1      -4.364  -9.962  -9.062  0.00  0.00    +0.000 C 
ATOM     21  H   UNL     1      -5.331  -9.460  -9.189  0.00  0.00    +0.000 HD
BRANCH  20  22
ATOM     22  C   UNL     1      -4.588 -11.439  -9.384  0.00  0.00    +0.000 C 
ATOM     23  H   UNL     1      -4.366 -11.657 -10.434  0.00  0.00    +0.000 HD
ATOM     24  H   UNL     1      -3.937 -12.071  -8.769  0.00  0.00    +0.000 HD
ATOM     25  H   UNL     1      -5.615 -11.752  -9.176  0.00  0.00    +0.000 HD
ENDBRANCH  20  22
BRANCH  20  26
ATOM     26  C   UNL     1      -3.943  -9.789  -7.605  0.00  0.00    +0.000 C 
ATOM     27  H   UNL     1      -2.996  -9.244  -7.519  0.00  0.00    +0.000 HD
ATOM     28  H   UNL     1      -3.805 -10.765  -7.124  0.00  0.00    +0.000 HD
ATOM     29  H   UNL     1      -4.704  -9.268  -7.017  0.00  0.00    +0.000 HD
ENDBRANCH  20  26
ENDBRANCH   2  20
TORSDOF 4
ENDMDL
MODEL 6
REMARK VINA RESULT:    -4.169     29.718     30.883
REMARK INTER + INTRA:          -4.914
REMARK INTER:                  -4.760
REMARK INTRA:                  -0.154
REMARK UNBOUND:                -0.136
REMARK  Name = 26447
REMARK  4 active torsions:
REMARK  status: ('A' for Active; 'I' for Inactive)
REMARK    1  A    between atoms: C_2  and  C_6
REMARK    2  A    between atoms: C_4  and  C_9
REMARK    3  A    between atoms: C_6  and  C_10
REMARK    4  A    between atoms: C_6  and  C_11
REMARK                            x       y       z     vdW  Elec       q    Type
REMARK                         _______ _______ _______ _____ _____    ______ ____
ROOT
ATOM      1  O   UNL     1      -6.400  -9.807  -9.191  0.00  0.00    +0.000 OA
ATOM      2  C   UNL     1      -5.401  -7.677  -9.674  0.00  0.00    +0.000 C 
ATOM      3  C   UNL     1      -6.025  -6.288  -9.524  0.00  0.00    +0.000 C 
ATOM      4  C   UNL     1      -7.000  -6.889  -7.245  0.00  0.00    +0.000 C 
ATOM      5  C   UNL     1      -6.210  -5.862  -8.067  0.00  0.00    +0.000 C 
ATOM      6  C   UNL     1      -6.368  -8.279  -7.346  0.00  0.00    +0.000 C 
ATOM      7  C   UNL     1      -6.118  -8.680  -8.785  0.00  0.00    +0.000 C 
ATOM      8  H   UNL     1      -5.562  -7.997 -10.713  0.00  0.00    +0.000 HD
ATOM      9  H   UNL     1      -7.016  -6.310  -9.999  0.00  0.00    +0.000 HD
ATOM     10  H   UNL     1      -5.478  -5.517 -10.073  0.00  0.00    +0.000 HD
ATOM     11  H   UNL     1      -6.961  -6.577  -6.193  0.00  0.00    +0.000 HD
ATOM     12  H   UNL     1      -5.225  -5.711  -7.607  0.00  0.00    +0.000 HD
ATOM     13  H   UNL     1      -6.716  -4.889  -8.036  0.00  0.00    +0.000 HD
ATOM     14  H   UNL     1      -7.013  -9.030  -6.875  0.00  0.00    +0.000 HD
ATOM     15  H   UNL     1      -5.406  -8.301  -6.820  0.00  0.00    +0.000 HD
ENDROOT
BRANCH   4  16
ATOM     16  C   UNL     1      -8.479  -6.924  -7.642  0.00  0.00    +0.000 C 
ATOM     17  H   UNL     1      -8.713  -6.109  -8.335  0.00  0.00    +0.000 HD
ATOM     18  H   UNL     1      -8.760  -7.867  -8.120  0.00  0.00    +0.000 HD
ATOM     19  H   UNL     1      -9.114  -6.800  -6.759  0.00  0.00    +0.000 HD
ENDBRANCH   4  16
BRANCH   2  20
ATOM     20  C   UNL     1      -3.906  -7.690  -9.370  0.00  0.00    +0.000 C 
ATOM     21  H   UNL     1      -3.734  -7.748  -8.288  0.00  0.00    +0.000 HD
BRANCH  20  22
ATOM     22  C   UNL     1      -3.241  -8.919  -9.989  0.00  0.00    +0.000 C 
ATOM     23  H   UNL     1      -3.952  -9.499 -10.588  0.00  0.00    +0.000 HD
ATOM     24  H   UNL     1      -2.418  -8.621 -10.648  0.00  0.00    +0.000 HD
ATOM     25  H   UNL     1      -2.811  -9.578  -9.229  0.00  0.00    +0.000 HD
ENDBRANCH  20  22
BRANCH  20  26
ATOM     26  C   UNL     1      -3.243  -6.411  -9.873  0.00  0.00    +0.000 C 
ATOM     27  H   UNL     1      -2.386  -6.127  -9.252  0.00  0.00    +0.000 HD
ATOM     28  H   UNL     1      -3.952  -5.576  -9.856  0.00  0.00    +0.000 HD
ATOM     29  H   UNL     1      -2.909  -6.503 -10.911  0.00  0.00    +0.000 HD
ENDBRANCH  20  26
ENDBRANCH   2  20
TORSDOF 4
ENDMDL
MODEL 7
REMARK VINA RESULT:    -4.059      1.719      4.204
REMARK INTER + INTRA:          -4.788
REMARK INTER:                  -4.636
REMARK INTRA:                  -0.152
REMARK UNBOUND:                -0.136
REMARK  Name = 26447
REMARK  4 active torsions:
REMARK  status: ('A' for Active; 'I' for Inactive)
REMARK    1  A    between atoms: C_2  and  C_6
REMARK    2  A    between atoms: C_4  and  C_9
REMARK    3  A    between atoms: C_6  and  C_10
REMARK    4  A    between atoms: C_6  and  C_11
REMARK                            x       y       z     vdW  Elec       q    Type
REMARK                         _______ _______ _______ _____ _____    ______ ____
ROOT
ATOM      1  O   UNL     1      19.857   8.407   3.768  0.00  0.00    +0.000 OA
ATOM      2  C   UNL     1      18.769   9.150   1.760  0.00  0.00    +0.000 C 
ATOM      3  C   UNL     1      19.388   9.368   0.378  0.00  0.00    +0.000 C 
ATOM      4  C   UNL     1      20.691   7.181   0.533  0.00  0.00    +0.000 C 
ATOM      5  C   UNL     1      19.776   8.066  -0.324  0.00  0.00    +0.000 C 
ATOM      6  C   UNL     1      20.071   6.914   1.906  0.00  0.00    +0.000 C 
ATOM      7  C   UNL     1      19.620   8.194   2.579  0.00  0.00    +0.000 C 
ATOM      8  H   UNL     1      18.781  10.118   2.281  0.00  0.00    +0.000 HD
ATOM      9  H   UNL     1      20.300   9.968   0.508  0.00  0.00    +0.000 HD
ATOM     10  H   UNL     1      18.756   9.973  -0.278  0.00  0.00    +0.000 HD
ATOM     11  H   UNL     1      20.802   6.217   0.019  0.00  0.00    +0.000 HD
ATOM     12  H   UNL     1      18.867   7.507  -0.577  0.00  0.00    +0.000 HD
ATOM     13  H   UNL     1      20.268   8.301  -1.276  0.00  0.00    +0.000 HD
ATOM     14  H   UNL     1      20.788   6.403   2.559  0.00  0.00    +0.000 HD
ATOM     15  H   UNL     1      19.196   6.260   1.809  0.00  0.00    +0.000 HD
ENDROOT
BRANCH   4  16
ATOM     16  C   UNL     1      22.098   7.774   0.667  0.00  0.00    +0.000 C 
ATOM     17  H   UNL     1      22.786   7.305  -0.043  0.00  0.00    +0.000 HD
ATOM     18  H   UNL     1      22.113   8.854   0.491  0.00  0.00    +0.000 HD
ATOM     19  H   UNL     1      22.491   7.599   1.674  0.00  0.00    +0.000 HD
ENDBRANCH   4  16
BRANCH   2  20
ATOM     20  C   UNL     1      17.334   8.635   1.691  0.00  0.00    +0.000 C 
ATOM     21  H   UNL     1      17.313   7.601   1.325  0.00  0.00    +0.000 HD
BRANCH  20  22
ATOM     22  C   UNL     1      16.697   8.625   3.080  0.00  0.00    +0.000 C 
ATOM     23  H   UNL     1      15.608   8.736   3.021  0.00  0.00    +0.000 HD
ATOM     24  H   UNL     1      16.907   7.681   3.594  0.00  0.00    +0.000 HD
ATOM     25  H   UNL     1      17.091   9.423   3.716  0.00  0.00    +0.000 HD
ENDBRANCH  20  22
BRANCH  20  26
ATOM     26  C   UNL     1      16.504   9.481   0.727  0.00  0.00    +0.000 C 
ATOM     27  H   UNL     1      17.028  10.401   0.442  0.00  0.00    +0.000 HD
ATOM     28  H   UNL     1      15.555   9.773   1.189  0.00  0.00    +0.000 HD
ATOM     29  H   UNL     1      16.242   8.930  -0.180  0.00  0.00    +0.000 HD
ENDBRANCH  20  26
ENDBRANCH   2  20
TORSDOF 4
ENDMDL
MODEL 8
REMARK VINA RESULT:    -4.032     29.718     30.801
REMARK INTER + INTRA:          -4.757
REMARK INTER:                  -4.597
REMARK INTRA:                  -0.160
REMARK UNBOUND:                -0.136
REMARK  Name = 26447
REMARK  4 active torsions:
REMARK  status: ('A' for Active; 'I' for Inactive)
REMARK    1  A    between atoms: C_2  and  C_6
REMARK    2  A    between atoms: C_4  and  C_9
REMARK    3  A    between atoms: C_6  and  C_10
REMARK    4  A    between atoms: C_6  and  C_11
REMARK                            x       y       z     vdW  Elec       q    Type
REMARK                         _______ _______ _______ _____ _____    ______ ____
ROOT
ATOM      1  O   UNL     1      -6.158  -6.395 -10.815  0.00  0.00    +0.000 OA
ATOM      2  C   UNL     1      -6.241  -7.737  -8.826  0.00  0.00    +0.000 C 
ATOM      3  C   UNL     1      -5.531  -9.064  -8.553  0.00  0.00    +0.000 C 
ATOM      4  C   UNL     1      -3.355  -8.193  -9.561  0.00  0.00    +0.000 C 
ATOM      5  C   UNL     1      -4.019  -8.917  -8.381  0.00  0.00    +0.000 C 
ATOM      6  C   UNL     1      -4.022  -6.842  -9.824  0.00  0.00    +0.000 C 
ATOM      7  C   UNL     1      -5.529  -6.968  -9.927  0.00  0.00    +0.000 C 
ATOM      8  H   UNL     1      -7.247  -7.974  -9.199  0.00  0.00    +0.000 HD
ATOM      9  H   UNL     1      -5.711  -9.725  -9.413  0.00  0.00    +0.000 HD
ATOM     10  H   UNL     1      -5.954  -9.604  -7.702  0.00  0.00    +0.000 HD
ATOM     11  H   UNL     1      -2.308  -8.006  -9.292  0.00  0.00    +0.000 HD
ATOM     12  H   UNL     1      -3.812  -8.365  -7.457  0.00  0.00    +0.000 HD
ATOM     13  H   UNL     1      -3.571  -9.911  -8.253  0.00  0.00    +0.000 HD
ATOM     14  H   UNL     1      -3.639  -6.398 -10.749  0.00  0.00    +0.000 HD
ATOM     15  H   UNL     1      -3.800  -6.142  -9.010  0.00  0.00    +0.000 HD
ENDROOT
BRANCH   4  16
ATOM     16  C   UNL     1      -3.339  -9.058 -10.826  0.00  0.00    +0.000 C 
ATOM     17  H   UNL     1      -3.616  -8.466 -11.704  0.00  0.00    +0.000 HD
ATOM     18  H   UNL     1      -2.357  -9.503 -11.013  0.00  0.00    +0.000 HD
ATOM     19  H   UNL     1      -4.061  -9.876 -10.737  0.00  0.00    +0.000 HD
ENDBRANCH   4  16
BRANCH   2  20
ATOM     20  C   UNL     1      -6.361  -6.864  -7.579  0.00  0.00    +0.000 C 
ATOM     21  H   UNL     1      -5.391  -6.417  -7.328  0.00  0.00    +0.000 HD
BRANCH  20  22
ATOM     22  C   UNL     1      -7.331  -5.708  -7.822  0.00  0.00    +0.000 C 
ATOM     23  H   UNL     1      -8.343  -5.958  -7.486  0.00  0.00    +0.000 HD
ATOM     24  H   UNL     1      -7.011  -4.815  -7.275  0.00  0.00    +0.000 HD
ATOM     25  H   UNL     1      -7.378  -5.429  -8.879  0.00  0.00    +0.000 HD
ENDBRANCH  20  22
BRANCH  20  26
ATOM     26  C   UNL     1      -6.808  -7.696  -6.380  0.00  0.00    +0.000 C 
ATOM     27  H   UNL     1      -6.850  -8.764  -6.621  0.00  0.00    +0.000 HD
ATOM     28  H   UNL     1      -7.810  -7.394  -6.053  0.00  0.00    +0.000 HD
ATOM     29  H   UNL     1      -6.153  -7.555  -5.516  0.00  0.00    +0.000 HD
ENDBRANCH  20  26
ENDBRANCH   2  20
TORSDOF 4
ENDMDL
MODEL 9
REMARK VINA RESULT:    -3.999     13.118     14.734
REMARK INTER + INTRA:          -4.719
REMARK INTER:                  -4.567
REMARK INTRA:                  -0.152
REMARK UNBOUND:                -0.136
REMARK  Name = 26447
REMARK  4 active torsions:
REMARK  status: ('A' for Active; 'I' for Inactive)
REMARK    1  A    between atoms: C_2  and  C_6
REMARK    2  A    between atoms: C_4  and  C_9
REMARK    3  A    between atoms: C_6  and  C_10
REMARK    4  A    between atoms: C_6  and  C_11
REMARK                            x       y       z     vdW  Elec       q    Type
REMARK                         _______ _______ _______ _____ _____    ______ ____
ROOT
ATOM      1  O   UNL     1       7.122  14.944  -5.449  0.00  0.00    +0.000 OA
ATOM      2  C   UNL     1       8.314  15.376  -7.488  0.00  0.00    +0.000 C 
ATOM      3  C   UNL     1       9.744  14.967  -7.849  0.00  0.00    +0.000 C 
ATOM      4  C   UNL     1       9.391  12.623  -6.906  0.00  0.00    +0.000 C 
ATOM      5  C   UNL     1       9.902  13.464  -8.084  0.00  0.00    +0.000 C 
ATOM      6  C   UNL     1       7.947  12.985  -6.556  0.00  0.00    +0.000 C 
ATOM      7  C   UNL     1       7.766  14.480  -6.389  0.00  0.00    +0.000 C 
ATOM      8  H   UNL     1       8.359  16.395  -7.079  0.00  0.00    +0.000 HD
ATOM      9  H   UNL     1      10.397  15.249  -7.011  0.00  0.00    +0.000 HD
ATOM     10  H   UNL     1      10.141  15.524  -8.702  0.00  0.00    +0.000 HD
ATOM     11  H   UNL     1       9.410  11.570  -7.215  0.00  0.00    +0.000 HD
ATOM     12  H   UNL     1       9.358  13.181  -8.993  0.00  0.00    +0.000 HD
ATOM     13  H   UNL     1      10.958  13.237  -8.275  0.00  0.00    +0.000 HD
ATOM     14  H   UNL     1       7.639  12.485  -5.631  0.00  0.00    +0.000 HD
ATOM     15  H   UNL     1       7.267  12.653  -7.349  0.00  0.00    +0.000 HD
ENDROOT
BRANCH   4  16
ATOM     16  C   UNL     1      10.304  12.740  -5.681  0.00  0.00    +0.000 C 
ATOM     17  H   UNL     1      11.113  13.454  -5.868  0.00  0.00    +0.000 HD
ATOM     18  H   UNL     1       9.762  13.066  -4.788  0.00  0.00    +0.000 HD
ATOM     19  H   UNL     1      10.763  11.772  -5.454  0.00  0.00    +0.000 HD
ENDBRANCH   4  16
BRANCH   2  20
ATOM     20  C   UNL     1       7.373  15.358  -8.689  0.00  0.00    +0.000 C 
ATOM     21  H   UNL     1       7.172  14.326  -9.004  0.00  0.00    +0.000 HD
BRANCH  20  22
ATOM     22  C   UNL     1       6.025  15.980  -8.327  0.00  0.00    +0.000 C 
ATOM     23  H   UNL     1       5.326  15.226  -7.948  0.00  0.00    +0.000 HD
ATOM     24  H   UNL     1       6.148  16.740  -7.548  0.00  0.00    +0.000 HD
ATOM     25  H   UNL     1       5.562  16.480  -9.183  0.00  0.00    +0.000 HD
ENDBRANCH  20  22
BRANCH  20  26
ATOM     26  C   UNL     1       7.999  16.087  -9.875  0.00  0.00    +0.000 C 
ATOM     27  H   UNL     1       8.637  15.423 -10.468  0.00  0.00    +0.000 HD
ATOM     28  H   UNL     1       8.621  16.921  -9.530  0.00  0.00    +0.000 HD
ATOM     29  H   UNL     1       7.242  16.527 -10.531  0.00  0.00    +0.000 HD
ENDBRANCH  20  26
ENDBRANCH   2  20
TORSDOF 4
ENDMDL
MODEL 10
REMARK VINA RESULT:    -3.977     11.151     12.362
REMARK INTER + INTRA:          -4.694
REMARK INTER:                  -4.558
REMARK INTRA:                  -0.136
REMARK UNBOUND:                -0.136
REMARK  Name = 26447
REMARK  4 active torsions:
REMARK  status: ('A' for Active; 'I' for Inactive)
REMARK    1  A    between atoms: C_2  and  C_6
REMARK    2  A    between atoms: C_4  and  C_9
REMARK    3  A    between atoms: C_6  and  C_10
REMARK    4  A    between atoms: C_6  and  C_11
REMARK                            x       y       z     vdW  Elec       q    Type
REMARK                         _______ _______ _______ _____ _____    ______ ____
ROOT
ATOM      1  O   UNL     1       7.673  15.614  -4.130  0.00  0.00    +0.000 OA
ATOM      2  C   UNL     1       8.986  13.695  -4.730  0.00  0.00    +0.000 C 
ATOM      3  C   UNL     1       9.753  12.750  -3.802  0.00  0.00    +0.000 C 
ATOM      4  C   UNL     1       7.798  12.649  -2.166  0.00  0.00    +0.000 C 
ATOM      5  C   UNL     1       8.841  11.853  -2.964  0.00  0.00    +0.000 C 
ATOM      6  C   UNL     1       6.990  13.569  -3.081  0.00  0.00    +0.000 C 
ATOM      7  C   UNL     1       7.885  14.413  -3.966  0.00  0.00    +0.000 C 
ATOM      8  H   UNL     1       9.694  14.463  -5.071  0.00  0.00    +0.000 HD
ATOM      9  H   UNL     1      10.350  13.364  -3.114  0.00  0.00    +0.000 HD
ATOM     10  H   UNL     1      10.490  12.142  -4.333  0.00  0.00    +0.000 HD
ATOM     11  H   UNL     1       7.104  11.929  -1.712  0.00  0.00    +0.000 HD
ATOM     12  H   UNL     1       8.326  11.143  -3.623  0.00  0.00    +0.000 HD
ATOM     13  H   UNL     1       9.453  11.251  -2.281  0.00  0.00    +0.000 HD
ATOM     14  H   UNL     1       6.349  14.233  -2.490  0.00  0.00    +0.000 HD
ATOM     15  H   UNL     1       6.334  12.981  -3.734  0.00  0.00    +0.000 HD
ENDROOT
BRANCH   4  16
ATOM     16  C   UNL     1       8.436  13.433  -1.015  0.00  0.00    +0.000 C 
ATOM     17  H   UNL     1       8.348  12.881  -0.074  0.00  0.00    +0.000 HD
ATOM     18  H   UNL     1       9.496  13.640  -1.190  0.00  0.00    +0.000 HD
ATOM     19  H   UNL     1       7.930  14.395  -0.883  0.00  0.00    +0.000 HD
ENDBRANCH   4  16
BRANCH   2  20
ATOM     20  C   UNL     1       8.395  12.982  -5.943  0.00  0.00    +0.000 C 
ATOM     21  H   UNL     1       7.609  12.282  -5.632  0.00  0.00    +0.000 HD
BRANCH  20  22
ATOM     22  C   UNL     1       7.742  13.986  -6.892  0.00  0.00    +0.000 C 
ATOM     23  H   UNL     1       8.475  14.417  -7.583  0.00  0.00    +0.000 HD
ATOM     24  H   UNL     1       6.966  13.500  -7.493  0.00  0.00    +0.000 HD
ATOM     25  H   UNL     1       7.255  14.803  -6.352  0.00  0.00    +0.000 HD
ENDBRANCH  20  22
BRANCH  20  26
ATOM     26  C   UNL     1       9.468  12.176  -6.670  0.00  0.00    +0.000 C 
ATOM     27  H   UNL     1      10.242  11.818  -5.981  0.00  0.00    +0.000 HD
ATOM     28  H   UNL     1       9.964  12.791  -7.430  0.00  0.00    +0.000 HD
ATOM     29  H   UNL     1       9.047  11.319  -7.202  0.00  0.00    +0.000 HD
ENDBRANCH  20  26
ENDBRANCH   2  20
TORSDOF 4
ENDMDL
