MODEL 1
REMARK VINA RESULT:    -4.194      0.000      0.000
REMARK INTER + INTRA:          -6.050
REMARK INTER:                  -5.808
REMARK INTRA:                  -0.242
REMARK UNBOUND:                -0.139
REMARK  Name = 7826
REMARK  8 active torsions:
REMARK  status: ('A' for Active; 'I' for Inactive)
REMARK    1  A    between atoms: O_1  and  C_9
REMARK    2  A    between atoms: O_1  and  C_10
REMARK    3  A    between atoms: C_3  and  C_4
REMARK    4  A    between atoms: C_3  and  C_5
REMARK    5  A    between atoms: C_4  and  C_6
REMARK    6  A    between atoms: C_5  and  C_7
REMARK    7  A    between atoms: C_6  and  C_8
REMARK    8  A    between atoms: C_7  and  C_9
REMARK                            x       y       z     vdW  Elec       q    Type
REMARK                         _______ _______ _______ _____ _____    ______ ____
ROOT
ATOM      1  C   UNL     1       5.796  -2.586  -1.183  0.00  0.00    +0.000 C 
ATOM      2  H   UNL     1       5.984  -3.264  -0.341  0.00  0.00    +0.000 HD
ATOM      3  H   UNL     1       6.095  -1.581  -0.862  0.00  0.00    +0.000 HD
ENDROOT
BRANCH   1   4
ATOM      4  C   UNL     1       4.306  -2.592  -1.529  0.00  0.00    +0.000 C 
ATOM      5  H   UNL     1       4.040  -1.655  -2.033  0.00  0.00    +0.000 HD
ATOM      6  H   UNL     1       4.096  -3.408  -2.231  0.00  0.00    +0.000 HD
BRANCH   4   7
ATOM      7  C   UNL     1       3.445  -2.760  -0.276  0.00  0.00    +0.000 C 
ATOM      8  H   UNL     1       2.463  -3.162  -0.551  0.00  0.00    +0.000 HD
ATOM      9  H   UNL     1       3.276  -1.783   0.193  0.00  0.00    +0.000 HD
BRANCH   7  10
ATOM     10  C   UNL     1       4.103  -3.689   0.731  0.00  0.00    +0.000 C 
ATOM     11  H   UNL     1       4.905  -3.177   1.272  0.00  0.00    +0.000 HD
ATOM     12  H   UNL     1       4.535  -4.556   0.222  0.00  0.00    +0.000 HD
ATOM     13  H   UNL     1       3.373  -4.054   1.463  0.00  0.00    +0.000 HD
ENDBRANCH   7  10
ENDBRANCH   4   7
ENDBRANCH   1   4
BRANCH   1  14
ATOM     14  C   UNL     1       6.647  -3.013  -2.384  0.00  0.00    +0.000 C 
ATOM     15  H   UNL     1       6.595  -4.103  -2.501  0.00  0.00    +0.000 HD
ATOM     16  H   UNL     1       6.227  -2.580  -3.301  0.00  0.00    +0.000 HD
BRANCH  14  17
ATOM     17  C   UNL     1       8.107  -2.586  -2.245  0.00  0.00    +0.000 C 
ATOM     18  H   UNL     1       8.660  -2.871  -3.149  0.00  0.00    +0.000 HD
ATOM     19  H   UNL     1       8.157  -1.497  -2.130  0.00  0.00    +0.000 HD
BRANCH  17  21
ATOM     20  O   UNL     1       8.776  -4.406  -0.776  0.00  0.00    +0.000 OA
ATOM     21  C   UNL     1       8.803  -3.216  -1.059  0.00  0.00    +0.000 C 
BRANCH  21  22
ATOM     22  O   UNL     1       9.434  -2.238  -0.343  0.00  0.00    +0.000 OA
BRANCH  22  23
ATOM     23  C   UNL     1       8.814  -1.884   0.897  0.00  0.00    +0.000 C 
ATOM     24  H   UNL     1       8.245  -2.730   1.291  0.00  0.00    +0.000 HD
ATOM     25  H   UNL     1       8.124  -1.057   0.707  0.00  0.00    +0.000 HD
ATOM     26  H   UNL     1       9.568  -1.554   1.617  0.00  0.00    +0.000 HD
ENDBRANCH  22  23
ENDBRANCH  21  22
ENDBRANCH  17  21
ENDBRANCH  14  17
ENDBRANCH   1  14
TORSDOF 8
ENDMDL
MODEL 2
REMARK VINA RESULT:    -4.079      8.179      9.647
REMARK INTER + INTRA:          -5.887
REMARK INTER:                  -5.729
REMARK INTRA:                  -0.158
REMARK UNBOUND:                -0.139
REMARK  Name = 7826
REMARK  8 active torsions:
REMARK  status: ('A' for Active; 'I' for Inactive)
REMARK    1  A    between atoms: O_1  and  C_9
REMARK    2  A    between atoms: O_1  and  C_10
REMARK    3  A    between atoms: C_3  and  C_4
REMARK    4  A    between atoms: C_3  and  C_5
REMARK    5  A    between atoms: C_4  and  C_6
REMARK    6  A    between atoms: C_5  and  C_7
REMARK    7  A    between atoms: C_6  and  C_8
REMARK    8  A    between atoms: C_7  and  C_9
REMARK                            x       y       z     vdW  Elec       q    Type
REMARK                         _______ _______ _______ _____ _____    ______ ____
ROOT
ATOM      1  C   UNL     1       9.679 -10.035  -0.273  0.00  0.00    +0.000 C 
ATOM      2  H   UNL     1       9.927  -9.012   0.036  0.00  0.00    +0.000 HD
ATOM      3  H   UNL     1      10.032 -10.708   0.518  0.00  0.00    +0.000 HD
ENDROOT
BRANCH   1   4
ATOM      4  C   UNL     1      10.392 -10.366  -1.585  0.00  0.00    +0.000 C 
ATOM      5  H   UNL     1      10.975 -11.287  -1.466  0.00  0.00    +0.000 HD
ATOM      6  H   UNL     1       9.648 -10.555  -2.369  0.00  0.00    +0.000 HD
BRANCH   4   7
ATOM      7  C   UNL     1      11.316  -9.228  -2.018  0.00  0.00    +0.000 C 
ATOM      8  H   UNL     1      11.710  -8.713  -1.135  0.00  0.00    +0.000 HD
ATOM      9  H   UNL     1      10.750  -8.490  -2.599  0.00  0.00    +0.000 HD
BRANCH   7  10
ATOM     10  C   UNL     1      12.475  -9.740  -2.858  0.00  0.00    +0.000 C 
ATOM     11  H   UNL     1      13.379  -9.852  -2.250  0.00  0.00    +0.000 HD
ATOM     12  H   UNL     1      12.695  -9.039  -3.668  0.00  0.00    +0.000 HD
ATOM     13  H   UNL     1      12.237 -10.712  -3.303  0.00  0.00    +0.000 HD
ENDBRANCH   7  10
ENDBRANCH   4   7
ENDBRANCH   1   4
BRANCH   1  14
ATOM     14  C   UNL     1       8.159 -10.171  -0.417  0.00  0.00    +0.000 C 
ATOM     15  H   UNL     1       7.668  -9.770   0.479  0.00  0.00    +0.000 HD
ATOM     16  H   UNL     1       7.816  -9.558  -1.260  0.00  0.00    +0.000 HD
BRANCH  14  17
ATOM     17  C   UNL     1       7.720 -11.618  -0.632  0.00  0.00    +0.000 C 
ATOM     18  H   UNL     1       7.339 -11.739  -1.653  0.00  0.00    +0.000 HD
ATOM     19  H   UNL     1       8.581 -12.282  -0.496  0.00  0.00    +0.000 HD
BRANCH  17  21
ATOM     20  O   UNL     1       6.658 -11.911   1.537  0.00  0.00    +0.000 OA
ATOM     21  C   UNL     1       6.633 -12.059   0.323  0.00  0.00    +0.000 C 
BRANCH  21  22
ATOM     22  O   UNL     1       5.641 -12.676  -0.386  0.00  0.00    +0.000 OA
BRANCH  22  23
ATOM     23  C   UNL     1       4.623 -11.812  -0.901  0.00  0.00    +0.000 C 
ATOM     24  H   UNL     1       4.726 -11.709  -1.985  0.00  0.00    +0.000 HD
ATOM     25  H   UNL     1       4.749 -10.828  -0.442  0.00  0.00    +0.000 HD
ATOM     26  H   UNL     1       3.633 -12.196  -0.641  0.00  0.00    +0.000 HD
ENDBRANCH  22  23
ENDBRANCH  21  22
ENDBRANCH  17  21
ENDBRANCH  14  17
ENDBRANCH   1  14
TORSDOF 8
ENDMDL
MODEL 3
REMARK VINA RESULT:    -4.029      8.228      9.695
REMARK INTER + INTRA:          -5.816
REMARK INTER:                  -5.577
REMARK INTRA:                  -0.239
REMARK UNBOUND:                -0.139
REMARK  Name = 7826
REMARK  8 active torsions:
REMARK  status: ('A' for Active; 'I' for Inactive)
REMARK    1  A    between atoms: O_1  and  C_9
REMARK    2  A    between atoms: O_1  and  C_10
REMARK    3  A    between atoms: C_3  and  C_4
REMARK    4  A    between atoms: C_3  and  C_5
REMARK    5  A    between atoms: C_4  and  C_6
REMARK    6  A    between atoms: C_5  and  C_7
REMARK    7  A    between atoms: C_6  and  C_8
REMARK    8  A    between atoms: C_7  and  C_9
REMARK                            x       y       z     vdW  Elec       q    Type
REMARK                         _______ _______ _______ _____ _____    ______ ____
ROOT
ATOM      1  C   UNL     1       8.672  -9.613  -0.253  0.00  0.00    +0.000 C 
ATOM      2  H   UNL     1       7.806  -9.010  -0.554  0.00  0.00    +0.000 HD
ATOM      3  H   UNL     1       8.735  -9.566   0.840  0.00  0.00    +0.000 HD
ENDROOT
BRANCH   1   4
ATOM      4  C   UNL     1       9.946  -9.029  -0.866  0.00  0.00    +0.000 C 
ATOM      5  H   UNL     1       9.690  -8.173  -1.503  0.00  0.00    +0.000 HD
ATOM      6  H   UNL     1      10.598  -8.655  -0.068  0.00  0.00    +0.000 HD
BRANCH   4   7
ATOM      7  C   UNL     1      10.695 -10.075  -1.693  0.00  0.00    +0.000 C 
ATOM      8  H   UNL     1      10.000 -10.573  -2.380  0.00  0.00    +0.000 HD
ATOM      9  H   UNL     1      11.106 -10.847  -1.032  0.00  0.00    +0.000 HD
BRANCH   7  10
ATOM     10  C   UNL     1      11.826  -9.448  -2.492  0.00  0.00    +0.000 C 
ATOM     11  H   UNL     1      12.643  -9.133  -1.835  0.00  0.00    +0.000 HD
ATOM     12  H   UNL     1      11.465  -8.568  -3.032  0.00  0.00    +0.000 HD
ATOM     13  H   UNL     1      12.228 -10.156  -3.225  0.00  0.00    +0.000 HD
ENDBRANCH   7  10
ENDBRANCH   4   7
ENDBRANCH   1   4
BRANCH   1  14
ATOM     14  C   UNL     1       8.460 -11.066  -0.690  0.00  0.00    +0.000 C 
ATOM     15  H   UNL     1       8.623 -11.152  -1.772  0.00  0.00    +0.000 HD
ATOM     16  H   UNL     1       9.212 -11.705  -0.210  0.00  0.00    +0.000 HD
BRANCH  14  17
ATOM     17  C   UNL     1       7.064 -11.582  -0.345  0.00  0.00    +0.000 C 
ATOM     18  H   UNL     1       6.371 -10.737  -0.261  0.00  0.00    +0.000 HD
ATOM     19  H   UNL     1       6.716 -12.247  -1.145  0.00  0.00    +0.000 HD
BRANCH  17  21
ATOM     20  O   UNL     1       6.494 -11.957   1.989  0.00  0.00    +0.000 OA
ATOM     21  C   UNL     1       7.017 -12.351   0.956  0.00  0.00    +0.000 C 
BRANCH  21  22
ATOM     22  O   UNL     1       7.679 -13.536   0.797  0.00  0.00    +0.000 OA
BRANCH  22  23
ATOM     23  C   UNL     1       8.446 -13.970   1.925  0.00  0.00    +0.000 C 
ATOM     24  H   UNL     1       8.583 -15.055   1.894  0.00  0.00    +0.000 HD
ATOM     25  H   UNL     1       7.892 -13.712   2.831  0.00  0.00    +0.000 HD
ATOM     26  H   UNL     1       9.412 -13.458   1.946  0.00  0.00    +0.000 HD
ENDBRANCH  22  23
ENDBRANCH  21  22
ENDBRANCH  17  21
ENDBRANCH  14  17
ENDBRANCH   1  14
TORSDOF 8
ENDMDL
MODEL 4
REMARK VINA RESULT:    -3.841      7.543      8.872
REMARK INTER + INTRA:          -5.552
REMARK INTER:                  -5.338
REMARK INTRA:                  -0.214
REMARK UNBOUND:                -0.139
REMARK  Name = 7826
REMARK  8 active torsions:
REMARK  status: ('A' for Active; 'I' for Inactive)
REMARK    1  A    between atoms: O_1  and  C_9
REMARK    2  A    between atoms: O_1  and  C_10
REMARK    3  A    between atoms: C_3  and  C_4
REMARK    4  A    between atoms: C_3  and  C_5
REMARK    5  A    between atoms: C_4  and  C_6
REMARK    6  A    between atoms: C_5  and  C_7
REMARK    7  A    between atoms: C_6  and  C_8
REMARK    8  A    between atoms: C_7  and  C_9
REMARK                            x       y       z     vdW  Elec       q    Type
REMARK                         _______ _______ _______ _____ _____    ______ ____
ROOT
ATOM      1  C   UNL     1      10.885  -8.905  -1.554  0.00  0.00    +0.000 C 
ATOM      2  H   UNL     1      11.707  -8.234  -1.274  0.00  0.00    +0.000 HD
ATOM      3  H   UNL     1      10.211  -8.337  -2.207  0.00  0.00    +0.000 HD
ENDROOT
BRANCH   1   4
ATOM      4  C   UNL     1      10.131  -9.350  -0.300  0.00  0.00    +0.000 C 
ATOM      5  H   UNL     1      10.412 -10.380  -0.047  0.00  0.00    +0.000 HD
ATOM      6  H   UNL     1      10.424  -8.718   0.547  0.00  0.00    +0.000 HD
BRANCH   4   7
ATOM      7  C   UNL     1       8.618  -9.268  -0.503  0.00  0.00    +0.000 C 
ATOM      8  H   UNL     1       8.396  -8.737  -1.436  0.00  0.00    +0.000 HD
ATOM      9  H   UNL     1       8.164  -8.693   0.313  0.00  0.00    +0.000 HD
BRANCH   7  10
ATOM     10  C   UNL     1       7.986 -10.649  -0.551  0.00  0.00    +0.000 C 
ATOM     11  H   UNL     1       6.905 -10.581  -0.704  0.00  0.00    +0.000 HD
ATOM     12  H   UNL     1       8.165 -11.180   0.389  0.00  0.00    +0.000 HD
ATOM     13  H   UNL     1       8.411 -11.247  -1.365  0.00  0.00    +0.000 HD
ENDBRANCH   7  10
ENDBRANCH   4   7
ENDBRANCH   1   4
BRANCH   1  14
ATOM     14  C   UNL     1      11.446 -10.107  -2.321  0.00  0.00    +0.000 C 
ATOM     15  H   UNL     1      11.856 -10.837  -1.611  0.00  0.00    +0.000 HD
ATOM     16  H   UNL     1      10.631 -10.613  -2.854  0.00  0.00    +0.000 HD
BRANCH  14  17
ATOM     17  C   UNL     1      12.531  -9.707  -3.320  0.00  0.00    +0.000 C 
ATOM     18  H   UNL     1      13.006  -8.774  -2.994  0.00  0.00    +0.000 HD
ATOM     19  H   UNL     1      13.292 -10.495  -3.363  0.00  0.00    +0.000 HD
BRANCH  17  21
ATOM     20  O   UNL     1      11.992  -8.422  -5.314  0.00  0.00    +0.000 OA
ATOM     21  C   UNL     1      12.002  -9.492  -4.721  0.00  0.00    +0.000 C 
BRANCH  21  22
ATOM     22  O   UNL     1      11.511 -10.675  -5.198  0.00  0.00    +0.000 OA
BRANCH  22  23
ATOM     23  C   UNL     1      12.450 -11.495  -5.898  0.00  0.00    +0.000 C 
ATOM     24  H   UNL     1      11.934 -12.121  -6.631  0.00  0.00    +0.000 HD
ATOM     25  H   UNL     1      12.944 -12.143  -5.170  0.00  0.00    +0.000 HD
ATOM     26  H   UNL     1      13.207 -10.873  -6.385  0.00  0.00    +0.000 HD
ENDBRANCH  22  23
ENDBRANCH  21  22
ENDBRANCH  17  21
ENDBRANCH  14  17
ENDBRANCH   1  14
TORSDOF 8
ENDMDL
MODEL 5
REMARK VINA RESULT:    -3.832     15.383     17.049
REMARK INTER + INTRA:          -5.539
REMARK INTER:                  -5.341
REMARK INTRA:                  -0.197
REMARK UNBOUND:                -0.139
REMARK  Name = 7826
REMARK  8 active torsions:
REMARK  status: ('A' for Active; 'I' for Inactive)
REMARK    1  A    between atoms: O_1  and  C_9
REMARK    2  A    between atoms: O_1  and  C_10
REMARK    3  A    between atoms: C_3  and  C_4
REMARK    4  A    between atoms: C_3  and  C_5
REMARK    5  A    between atoms: C_4  and  C_6
REMARK    6  A    between atoms: C_5  and  C_7
REMARK    7  A    between atoms: C_6  and  C_8
REMARK    8  A    between atoms: C_7  and  C_9
REMARK                            x       y       z     vdW  Elec       q    Type
REMARK                         _______ _______ _______ _____ _____    ______ ____
ROOT
ATOM      1  C   UNL     1      -6.275 -13.414   4.008  0.00  0.00    +0.000 C 
ATOM      2  H   UNL     1      -7.192 -13.991   4.181  0.00  0.00    +0.000 HD
ATOM      3  H   UNL     1      -5.521 -14.112   3.625  0.00  0.00    +0.000 HD
ENDROOT
BRANCH   1   4
ATOM      4  C   UNL     1      -5.790 -12.807   5.325  0.00  0.00    +0.000 C 
ATOM      5  H   UNL     1      -4.715 -12.599   5.262  0.00  0.00    +0.000 HD
ATOM      6  H   UNL     1      -6.294 -11.848   5.495  0.00  0.00    +0.000 HD
BRANCH   4   7
ATOM      7  C   UNL     1      -6.060 -13.744   6.503  0.00  0.00    +0.000 C 
ATOM      8  H   UNL     1      -5.232 -13.689   7.219  0.00  0.00    +0.000 HD
ATOM      9  H   UNL     1      -6.115 -14.780   6.148  0.00  0.00    +0.000 HD
BRANCH   7  10
ATOM     10  C   UNL     1      -7.358 -13.390   7.210  0.00  0.00    +0.000 C 
ATOM     11  H   UNL     1      -7.639 -14.168   7.927  0.00  0.00    +0.000 HD
ATOM     12  H   UNL     1      -8.170 -13.288   6.483  0.00  0.00    +0.000 HD
ATOM     13  H   UNL     1      -7.265 -12.442   7.750  0.00  0.00    +0.000 HD
ENDBRANCH   7  10
ENDBRANCH   4   7
ENDBRANCH   1   4
BRANCH   1  14
ATOM     14  C   UNL     1      -6.544 -12.328   2.961  0.00  0.00    +0.000 C 
ATOM     15  H   UNL     1      -7.280 -12.693   2.234  0.00  0.00    +0.000 HD
ATOM     16  H   UNL     1      -6.995 -11.454   3.449  0.00  0.00    +0.000 HD
BRANCH  14  17
ATOM     17  C   UNL     1      -5.275 -11.898   2.227  0.00  0.00    +0.000 C 
ATOM     18  H   UNL     1      -5.243 -10.804   2.160  0.00  0.00    +0.000 HD
ATOM     19  H   UNL     1      -4.398 -12.244   2.786  0.00  0.00    +0.000 HD
BRANCH  17  21
ATOM     20  O   UNL     1      -4.188 -12.410   0.112  0.00  0.00    +0.000 OA
ATOM     21  C   UNL     1      -5.183 -12.451   0.822  0.00  0.00    +0.000 C 
BRANCH  21  22
ATOM     22  O   UNL     1      -6.397 -12.970   0.468  0.00  0.00    +0.000 OA
BRANCH  22  23
ATOM     23  C   UNL     1      -6.353 -14.073  -0.443  0.00  0.00    +0.000 C 
ATOM     24  H   UNL     1      -5.357 -14.523  -0.445  0.00  0.00    +0.000 HD
ATOM     25  H   UNL     1      -6.568 -13.693  -1.446  0.00  0.00    +0.000 HD
ATOM     26  H   UNL     1      -7.113 -14.813  -0.178  0.00  0.00    +0.000 HD
ENDBRANCH  22  23
ENDBRANCH  21  22
ENDBRANCH  17  21
ENDBRANCH  14  17
ENDBRANCH   1  14
TORSDOF 8
ENDMDL
MODEL 6
REMARK VINA RESULT:    -3.800     14.282     15.257
REMARK INTER + INTRA:          -5.494
REMARK INTER:                  -5.179
REMARK INTRA:                  -0.315
REMARK UNBOUND:                -0.139
REMARK  Name = 7826
REMARK  8 active torsions:
REMARK  status: ('A' for Active; 'I' for Inactive)
REMARK    1  A    between atoms: O_1  and  C_9
REMARK    2  A    between atoms: O_1  and  C_10
REMARK    3  A    between atoms: C_3  and  C_4
REMARK    4  A    between atoms: C_3  and  C_5
REMARK    5  A    between atoms: C_4  and  C_6
REMARK    6  A    between atoms: C_5  and  C_7
REMARK    7  A    between atoms: C_6  and  C_8
REMARK    8  A    between atoms: C_7  and  C_9
REMARK                            x       y       z     vdW  Elec       q    Type
REMARK                         _______ _______ _______ _____ _____    ______ ____
ROOT
ATOM      1  C   UNL     1      -3.515  -9.201 -10.112  0.00  0.00    +0.000 C 
ATOM      2  H   UNL     1      -2.753  -9.648 -10.763  0.00  0.00    +0.000 HD
ATOM      3  H   UNL     1      -4.303  -8.803 -10.762  0.00  0.00    +0.000 HD
ENDROOT
BRANCH   1   4
ATOM      4  C   UNL     1      -2.896  -8.063  -9.299  0.00  0.00    +0.000 C 
ATOM      5  H   UNL     1      -3.083  -8.229  -8.231  0.00  0.00    +0.000 HD
ATOM      6  H   UNL     1      -1.809  -8.061  -9.440  0.00  0.00    +0.000 HD
BRANCH   4   7
ATOM      7  C   UNL     1      -3.469  -6.708  -9.714  0.00  0.00    +0.000 C 
ATOM      8  H   UNL     1      -3.382  -6.584 -10.799  0.00  0.00    +0.000 HD
ATOM      9  H   UNL     1      -2.892  -5.901  -9.247  0.00  0.00    +0.000 HD
BRANCH   7  10
ATOM     10  C   UNL     1      -4.929  -6.573  -9.310  0.00  0.00    +0.000 C 
ATOM     11  H   UNL     1      -5.188  -7.295  -8.529  0.00  0.00    +0.000 HD
ATOM     12  H   UNL     1      -5.578  -6.756 -10.171  0.00  0.00    +0.000 HD
ATOM     13  H   UNL     1      -5.140  -5.567  -8.933  0.00  0.00    +0.000 HD
ENDBRANCH   7  10
ENDBRANCH   4   7
ENDBRANCH   1   4
BRANCH   1  14
ATOM     14  C   UNL     1      -4.103 -10.281  -9.198  0.00  0.00    +0.000 C 
ATOM     15  H   UNL     1      -5.177 -10.386  -9.399  0.00  0.00    +0.000 HD
ATOM     16  H   UNL     1      -3.646 -11.250  -9.436  0.00  0.00    +0.000 HD
BRANCH  14  17
ATOM     17  C   UNL     1      -3.892  -9.971  -7.717  0.00  0.00    +0.000 C 
ATOM     18  H   UNL     1      -3.127 -10.642  -7.308  0.00  0.00    +0.000 HD
ATOM     19  H   UNL     1      -3.549  -8.936  -7.609  0.00  0.00    +0.000 HD
BRANCH  17  21
ATOM     20  O   UNL     1      -6.024 -10.963  -7.097  0.00  0.00    +0.000 OA
ATOM     21  C   UNL     1      -5.146 -10.138  -6.888  0.00  0.00    +0.000 C 
BRANCH  21  22
ATOM     22  O   UNL     1      -5.150  -9.201  -5.894  0.00  0.00    +0.000 OA
BRANCH  22  23
ATOM     23  C   UNL     1      -6.341  -9.146  -5.103  0.00  0.00    +0.000 C 
ATOM     24  H   UNL     1      -6.156  -8.593  -4.178  0.00  0.00    +0.000 HD
ATOM     25  H   UNL     1      -6.627 -10.170  -4.848  0.00  0.00    +0.000 HD
ATOM     26  H   UNL     1      -7.154  -8.686  -5.673  0.00  0.00    +0.000 HD
ENDBRANCH  22  23
ENDBRANCH  21  22
ENDBRANCH  17  21
ENDBRANCH  14  17
ENDBRANCH   1  14
TORSDOF 8
ENDMDL
MODEL 7
REMARK VINA RESULT:    -3.759      8.924      9.938
REMARK INTER + INTRA:          -5.436
REMARK INTER:                  -5.184
REMARK INTRA:                  -0.251
REMARK UNBOUND:                -0.139
REMARK  Name = 7826
REMARK  8 active torsions:
REMARK  status: ('A' for Active; 'I' for Inactive)
REMARK    1  A    between atoms: O_1  and  C_9
REMARK    2  A    between atoms: O_1  and  C_10
REMARK    3  A    between atoms: C_3  and  C_4
REMARK    4  A    between atoms: C_3  and  C_5
REMARK    5  A    between atoms: C_4  and  C_6
REMARK    6  A    between atoms: C_5  and  C_7
REMARK    7  A    between atoms: C_6  and  C_8
REMARK    8  A    between atoms: C_7  and  C_9
REMARK                            x       y       z     vdW  Elec       q    Type
REMARK                         _______ _______ _______ _____ _____    ______ ____
ROOT
ATOM      1  C   UNL     1       4.754 -13.373   1.774  0.00  0.00    +0.000 C 
ATOM      2  H   UNL     1       4.305 -14.267   2.224  0.00  0.00    +0.000 HD
ATOM      3  H   UNL     1       5.705 -13.194   2.289  0.00  0.00    +0.000 HD
ENDROOT
BRANCH   1   4
ATOM      4  C   UNL     1       3.828 -12.172   1.974  0.00  0.00    +0.000 C 
ATOM      5  H   UNL     1       4.408 -11.315   2.336  0.00  0.00    +0.000 HD
ATOM      6  H   UNL     1       3.391 -11.883   1.011  0.00  0.00    +0.000 HD
BRANCH   4   7
ATOM      7  C   UNL     1       2.711 -12.491   2.969  0.00  0.00    +0.000 C 
ATOM      8  H   UNL     1       1.737 -12.391   2.478  0.00  0.00    +0.000 HD
ATOM      9  H   UNL     1       2.734 -11.773   3.797  0.00  0.00    +0.000 HD
BRANCH   7  10
ATOM     10  C   UNL     1       2.848 -13.898   3.527  0.00  0.00    +0.000 C 
ATOM     11  H   UNL     1       2.859 -14.640   2.722  0.00  0.00    +0.000 HD
ATOM     12  H   UNL     1       2.007 -14.127   4.189  0.00  0.00    +0.000 HD
ATOM     13  H   UNL     1       3.773 -14.004   4.104  0.00  0.00    +0.000 HD
ENDBRANCH   7  10
ENDBRANCH   4   7
ENDBRANCH   1   4
BRANCH   1  14
ATOM     14  C   UNL     1       5.020 -13.628   0.286  0.00  0.00    +0.000 C 
ATOM     15  H   UNL     1       5.793 -14.399   0.179  0.00  0.00    +0.000 HD
ATOM     16  H   UNL     1       4.112 -14.029  -0.183  0.00  0.00    +0.000 HD
BRANCH  14  17
ATOM     17  C   UNL     1       5.456 -12.365  -0.454  0.00  0.00    +0.000 C 
ATOM     18  H   UNL     1       5.150 -12.430  -1.505  0.00  0.00    +0.000 HD
ATOM     19  H   UNL     1       4.972 -11.493   0.001  0.00  0.00    +0.000 HD
BRANCH  17  21
ATOM     20  O   UNL     1       7.788 -13.000  -0.175  0.00  0.00    +0.000 OA
ATOM     21  C   UNL     1       6.952 -12.141  -0.421  0.00  0.00    +0.000 C 
BRANCH  21  22
ATOM     22  O   UNL     1       7.210 -10.824  -0.677  0.00  0.00    +0.000 OA
BRANCH  22  23
ATOM     23  C   UNL     1       8.411 -10.307  -0.096  0.00  0.00    +0.000 C 
ATOM     24  H   UNL     1       8.209  -9.916   0.906  0.00  0.00    +0.000 HD
ATOM     25  H   UNL     1       8.767  -9.487  -0.726  0.00  0.00    +0.000 HD
ATOM     26  H   UNL     1       9.180 -11.083  -0.061  0.00  0.00    +0.000 HD
ENDBRANCH  22  23
ENDBRANCH  21  22
ENDBRANCH  17  21
ENDBRANCH  14  17
ENDBRANCH   1  14
TORSDOF 8
ENDMDL
MODEL 8
REMARK VINA RESULT:    -3.751      8.862     10.316
REMARK INTER + INTRA:          -5.425
REMARK INTER:                  -5.200
REMARK INTRA:                  -0.225
REMARK UNBOUND:                -0.139
REMARK  Name = 7826
REMARK  8 active torsions:
REMARK  status: ('A' for Active; 'I' for Inactive)
REMARK    1  A    between atoms: O_1  and  C_9
REMARK    2  A    between atoms: O_1  and  C_10
REMARK    3  A    between atoms: C_3  and  C_4
REMARK    4  A    between atoms: C_3  and  C_5
REMARK    5  A    between atoms: C_4  and  C_6
REMARK    6  A    between atoms: C_5  and  C_7
REMARK    7  A    between atoms: C_6  and  C_8
REMARK    8  A    between atoms: C_7  and  C_9
REMARK                            x       y       z     vdW  Elec       q    Type
REMARK                         _______ _______ _______ _____ _____    ______ ____
ROOT
ATOM      1  C   UNL     1       7.270 -11.642   0.029  0.00  0.00    +0.000 C 
ATOM      2  H   UNL     1       7.258 -10.611   0.404  0.00  0.00    +0.000 HD
ATOM      3  H   UNL     1       7.465 -12.297   0.887  0.00  0.00    +0.000 HD
ENDROOT
BRANCH   1   4
ATOM      4  C   UNL     1       8.386 -11.803  -1.004  0.00  0.00    +0.000 C 
ATOM      5  H   UNL     1       8.961 -12.712  -0.787  0.00  0.00    +0.000 HD
ATOM      6  H   UNL     1       7.947 -11.929  -2.001  0.00  0.00    +0.000 HD
BRANCH   4   7
ATOM      7  C   UNL     1       9.322 -10.594  -1.004  0.00  0.00    +0.000 C 
ATOM      8  H   UNL     1       9.751 -10.456  -2.004  0.00  0.00    +0.000 HD
ATOM      9  H   UNL     1      10.156 -10.769  -0.314  0.00  0.00    +0.000 HD
BRANCH   7  10
ATOM     10  C   UNL     1       8.593  -9.325  -0.594  0.00  0.00    +0.000 C 
ATOM     11  H   UNL     1       8.876  -8.485  -1.235  0.00  0.00    +0.000 HD
ATOM     12  H   UNL     1       8.840  -9.064   0.440  0.00  0.00    +0.000 HD
ATOM     13  H   UNL     1       7.507  -9.458  -0.660  0.00  0.00    +0.000 HD
ENDBRANCH   7  10
ENDBRANCH   4   7
ENDBRANCH   1   4
BRANCH   1  14
ATOM     14  C   UNL     1       5.902 -11.983  -0.573  0.00  0.00    +0.000 C 
ATOM     15  H   UNL     1       5.173 -11.216  -0.284  0.00  0.00    +0.000 HD
ATOM     16  H   UNL     1       5.968 -11.954  -1.668  0.00  0.00    +0.000 HD
BRANCH  14  17
ATOM     17  C   UNL     1       5.396 -13.356  -0.132  0.00  0.00    +0.000 C 
ATOM     18  H   UNL     1       4.695 -13.746  -0.880  0.00  0.00    +0.000 HD
ATOM     19  H   UNL     1       6.245 -14.045  -0.049  0.00  0.00    +0.000 HD
BRANCH  17  21
ATOM     20  O   UNL     1       4.732 -14.213   2.045  0.00  0.00    +0.000 OA
ATOM     21  C   UNL     1       4.683 -13.329   1.201  0.00  0.00    +0.000 C 
BRANCH  21  22
ATOM     22  O   UNL     1       3.954 -12.176   1.293  0.00  0.00    +0.000 OA
BRANCH  22  23
ATOM     23  C   UNL     1       3.128 -12.060   2.455  0.00  0.00    +0.000 C 
ATOM     24  H   UNL     1       3.427 -12.796   3.207  0.00  0.00    +0.000 HD
ATOM     25  H   UNL     1       2.095 -12.261   2.159  0.00  0.00    +0.000 HD
ATOM     26  H   UNL     1       3.186 -11.046   2.861  0.00  0.00    +0.000 HD
ENDBRANCH  22  23
ENDBRANCH  21  22
ENDBRANCH  17  21
ENDBRANCH  14  17
ENDBRANCH   1  14
TORSDOF 8
ENDMDL
MODEL 9
REMARK VINA RESULT:    -3.693     15.076     15.814
REMARK INTER + INTRA:          -5.344
REMARK INTER:                  -5.205
REMARK INTRA:                  -0.139
REMARK UNBOUND:                -0.139
REMARK  Name = 7826
REMARK  8 active torsions:
REMARK  status: ('A' for Active; 'I' for Inactive)
REMARK    1  A    between atoms: O_1  and  C_9
REMARK    2  A    between atoms: O_1  and  C_10
REMARK    3  A    between atoms: C_3  and  C_4
REMARK    4  A    between atoms: C_3  and  C_5
REMARK    5  A    between atoms: C_4  and  C_6
REMARK    6  A    between atoms: C_5  and  C_7
REMARK    7  A    between atoms: C_6  and  C_8
REMARK    8  A    between atoms: C_7  and  C_9
REMARK                            x       y       z     vdW  Elec       q    Type
REMARK                         _______ _______ _______ _____ _____    ______ ____
ROOT
ATOM      1  C   UNL     1       6.608  12.788   0.734  0.00  0.00    +0.000 C 
ATOM      2  H   UNL     1       7.631  12.743   1.127  0.00  0.00    +0.000 HD
ATOM      3  H   UNL     1       6.214  13.784   0.967  0.00  0.00    +0.000 HD
ENDROOT
BRANCH   1   4
ATOM      4  C   UNL     1       5.746  11.723   1.414  0.00  0.00    +0.000 C 
ATOM      5  H   UNL     1       4.804  11.604   0.864  0.00  0.00    +0.000 HD
ATOM      6  H   UNL     1       6.263  10.757   1.381  0.00  0.00    +0.000 HD
BRANCH   4   7
ATOM      7  C   UNL     1       5.446  12.095   2.867  0.00  0.00    +0.000 C 
ATOM      8  H   UNL     1       5.641  11.236   3.518  0.00  0.00    +0.000 HD
ATOM      9  H   UNL     1       4.385  12.350   2.974  0.00  0.00    +0.000 HD
BRANCH   7  10
ATOM     10  C   UNL     1       6.290  13.273   3.325  0.00  0.00    +0.000 C 
ATOM     11  H   UNL     1       7.180  12.931   3.864  0.00  0.00    +0.000 HD
ATOM     12  H   UNL     1       5.712  13.915   3.997  0.00  0.00    +0.000 HD
ATOM     13  H   UNL     1       6.615  13.879   2.473  0.00  0.00    +0.000 HD
ENDBRANCH   7  10
ENDBRANCH   4   7
ENDBRANCH   1   4
BRANCH   1  14
ATOM     14  C   UNL     1       6.635  12.592  -0.786  0.00  0.00    +0.000 C 
ATOM     15  H   UNL     1       6.225  11.606  -1.037  0.00  0.00    +0.000 HD
ATOM     16  H   UNL     1       5.979  13.333  -1.261  0.00  0.00    +0.000 HD
BRANCH  14  17
ATOM     17  C   UNL     1       8.043  12.718  -1.365  0.00  0.00    +0.000 C 
ATOM     18  H   UNL     1       8.507  13.645  -1.006  0.00  0.00    +0.000 HD
ATOM     19  H   UNL     1       8.650  11.868  -1.031  0.00  0.00    +0.000 HD
BRANCH  17  21
ATOM     20  O   UNL     1       7.176  13.190  -3.588  0.00  0.00    +0.000 OA
ATOM     21  C   UNL     1       8.066  12.744  -2.877  0.00  0.00    +0.000 C 
BRANCH  21  22
ATOM     22  O   UNL     1       9.223  12.163  -3.315  0.00  0.00    +0.000 OA
BRANCH  22  23
ATOM     23  C   UNL     1       9.525  12.358  -4.700  0.00  0.00    +0.000 C 
ATOM     24  H   UNL     1      10.606  12.323  -4.860  0.00  0.00    +0.000 HD
ATOM     25  H   UNL     1       9.159  13.346  -4.991  0.00  0.00    +0.000 HD
ATOM     26  H   UNL     1       9.019  11.603  -5.308  0.00  0.00    +0.000 HD
ENDBRANCH  22  23
ENDBRANCH  21  22
ENDBRANCH  17  21
ENDBRANCH  14  17
ENDBRANCH   1  14
TORSDOF 8
ENDMDL
MODEL 10
REMARK VINA RESULT:    -3.685      9.945     10.504
REMARK INTER + INTRA:          -5.332
REMARK INTER:                  -5.064
REMARK INTRA:                  -0.268
REMARK UNBOUND:                -0.139
REMARK  Name = 7826
REMARK  8 active torsions:
REMARK  status: ('A' for Active; 'I' for Inactive)
REMARK    1  A    between atoms: O_1  and  C_9
REMARK    2  A    between atoms: O_1  and  C_10
REMARK    3  A    between atoms: C_3  and  C_4
REMARK    4  A    between atoms: C_3  and  C_5
REMARK    5  A    between atoms: C_4  and  C_6
REMARK    6  A    between atoms: C_5  and  C_7
REMARK    7  A    between atoms: C_6  and  C_8
REMARK    8  A    between atoms: C_7  and  C_9
REMARK                            x       y       z     vdW  Elec       q    Type
REMARK                         _______ _______ _______ _____ _____    ______ ____
ROOT
ATOM      1  C   UNL     1       4.584 -12.531   1.522  0.00  0.00    +0.000 C 
ATOM      2  H   UNL     1       4.449 -13.507   2.005  0.00  0.00    +0.000 HD
ATOM      3  H   UNL     1       5.384 -12.010   2.062  0.00  0.00    +0.000 HD
ENDROOT
BRANCH   1   4
ATOM      4  C   UNL     1       3.289 -11.723   1.619  0.00  0.00    +0.000 C 
ATOM      5  H   UNL     1       3.526 -10.663   1.765  0.00  0.00    +0.000 HD
ATOM      6  H   UNL     1       2.736 -11.804   0.675  0.00  0.00    +0.000 HD
BRANCH   4   7
ATOM      7  C   UNL     1       2.412 -12.214   2.771  0.00  0.00    +0.000 C 
ATOM      8  H   UNL     1       1.382 -12.349   2.422  0.00  0.00    +0.000 HD
ATOM      9  H   UNL     1       2.390 -11.462   3.568  0.00  0.00    +0.000 HD
BRANCH   7  10
ATOM     10  C   UNL     1       2.923 -13.528   3.339  0.00  0.00    +0.000 C 
ATOM     11  H   UNL     1       2.399 -13.785   4.265  0.00  0.00    +0.000 HD
ATOM     12  H   UNL     1       3.992 -13.454   3.562  0.00  0.00    +0.000 HD
ATOM     13  H   UNL     1       2.781 -14.346   2.625  0.00  0.00    +0.000 HD
ENDBRANCH   7  10
ENDBRANCH   4   7
ENDBRANCH   1   4
BRANCH   1  14
ATOM     14  C   UNL     1       5.004 -12.736   0.063  0.00  0.00    +0.000 C 
ATOM     15  H   UNL     1       4.112 -12.892  -0.557  0.00  0.00    +0.000 HD
ATOM     16  H   UNL     1       5.487 -11.824  -0.310  0.00  0.00    +0.000 HD
BRANCH  14  17
ATOM     17  C   UNL     1       5.955 -13.919  -0.111  0.00  0.00    +0.000 C 
ATOM     18  H   UNL     1       6.031 -14.471   0.834  0.00  0.00    +0.000 HD
ATOM     19  H   UNL     1       5.560 -14.592  -0.881  0.00  0.00    +0.000 HD
BRANCH  17  21
ATOM     20  O   UNL     1       7.849 -13.700  -1.620  0.00  0.00    +0.000 OA
ATOM     21  C   UNL     1       7.352 -13.507  -0.519  0.00  0.00    +0.000 C 
BRANCH  21  22
ATOM     22  O   UNL     1       7.971 -12.918   0.546  0.00  0.00    +0.000 OA
BRANCH  22  23
ATOM     23  C   UNL     1       8.264 -13.784   1.646  0.00  0.00    +0.000 C 
ATOM     24  H   UNL     1       8.881 -14.624   1.312  0.00  0.00    +0.000 HD
ATOM     25  H   UNL     1       7.319 -14.175   2.032  0.00  0.00    +0.000 HD
ATOM     26  H   UNL     1       8.766 -13.228   2.443  0.00  0.00    +0.000 HD
ENDBRANCH  22  23
ENDBRANCH  21  22
ENDBRANCH  17  21
ENDBRANCH  14  17
ENDBRANCH   1  14
TORSDOF 8
ENDMDL
