MODEL 1
REMARK VINA RESULT:    -4.684      0.000      0.000
REMARK INTER + INTRA:          -7.808
REMARK INTER:                  -6.919
REMARK INTRA:                  -0.889
REMARK UNBOUND:                -0.386
REMARK  Name = 8050
REMARK  11 active torsions:
REMARK  status: ('A' for Active; 'I' for Inactive)
REMARK    1  A    between atoms: O_1  and  C_12
REMARK    2  A    between atoms: O_1  and  C_13
REMARK    3  A    between atoms: C_3  and  C_4
REMARK    4  A    between atoms: C_3  and  C_5
REMARK    5  A    between atoms: C_4  and  C_6
REMARK    6  A    between atoms: C_5  and  C_7
REMARK    7  A    between atoms: C_6  and  C_8
REMARK    8  A    between atoms: C_7  and  C_9
REMARK    9  A    between atoms: C_8  and  C_10
REMARK   10  A    between atoms: C_9  and  C_11
REMARK   11  A    between atoms: C_10  and  C_12
REMARK                            x       y       z     vdW  Elec       q    Type
REMARK                         _______ _______ _______ _____ _____    ______ ____
ROOT
ATOM      1  C   UNL     1       4.829 -12.892  -1.183  0.00  0.00    +0.000 C 
ATOM      2  H   UNL     1       5.723 -12.492  -1.677  0.00  0.00    +0.000 HD
ATOM      3  H   UNL     1       4.252 -13.429  -1.946  0.00  0.00    +0.000 HD
ENDROOT
BRANCH   1   4
ATOM      4  C   UNL     1       5.245 -13.866  -0.077  0.00  0.00    +0.000 C 
ATOM      5  H   UNL     1       4.895 -13.496   0.893  0.00  0.00    +0.000 HD
ATOM      6  H   UNL     1       4.768 -14.839  -0.245  0.00  0.00    +0.000 HD
BRANCH   4   7
ATOM      7  C   UNL     1       6.765 -14.044  -0.040  0.00  0.00    +0.000 C 
ATOM      8  H   UNL     1       7.007 -15.109  -0.138  0.00  0.00    +0.000 HD
ATOM      9  H   UNL     1       7.142 -13.721   0.938  0.00  0.00    +0.000 HD
BRANCH   7  10
ATOM     10  C   UNL     1       7.496 -13.262  -1.135  0.00  0.00    +0.000 C 
ATOM     11  H   UNL     1       6.759 -12.739  -1.757  0.00  0.00    +0.000 HD
ATOM     12  H   UNL     1       8.015 -13.972  -1.790  0.00  0.00    +0.000 HD
BRANCH  10  13
ATOM     13  C   UNL     1       8.501 -12.247  -0.589  0.00  0.00    +0.000 C 
ATOM     14  H   UNL     1       8.864 -12.574   0.392  0.00  0.00    +0.000 HD
ATOM     15  H   UNL     1       9.371 -12.191  -1.256  0.00  0.00    +0.000 HD
BRANCH  13  16
ATOM     16  C   UNL     1       7.881 -10.864  -0.465  0.00  0.00    +0.000 C 
ATOM     17  H   UNL     1       6.987 -10.776  -1.090  0.00  0.00    +0.000 HD
ATOM     18  H   UNL     1       8.595 -10.099  -0.783  0.00  0.00    +0.000 HD
ATOM     19  H   UNL     1       7.597 -10.655   0.572  0.00  0.00    +0.000 HD
ENDBRANCH  13  16
ENDBRANCH  10  13
ENDBRANCH   7  10
ENDBRANCH   4   7
ENDBRANCH   1   4
BRANCH   1  20
ATOM     20  C   UNL     1       3.990 -11.742  -0.624  0.00  0.00    +0.000 C 
ATOM     21  H   UNL     1       4.313 -10.796  -1.075  0.00  0.00    +0.000 HD
ATOM     22  H   UNL     1       2.939 -11.889  -0.899  0.00  0.00    +0.000 HD
BRANCH  20  23
ATOM     23  C   UNL     1       4.117 -11.650   0.897  0.00  0.00    +0.000 C 
ATOM     24  H   UNL     1       4.873 -10.900   1.160  0.00  0.00    +0.000 HD
ATOM     25  H   UNL     1       4.474 -12.610   1.291  0.00  0.00    +0.000 HD
BRANCH  23  26
ATOM     26  C   UNL     1       2.783 -11.292   1.544  0.00  0.00    +0.000 C 
ATOM     27  H   UNL     1       2.026 -11.114   0.773  0.00  0.00    +0.000 HD
ATOM     28  H   UNL     1       2.897 -10.389   2.155  0.00  0.00    +0.000 HD
BRANCH  26  30
ATOM     29  O   UNL     1       1.141 -12.795   2.475  0.00  0.00    +0.000 OA
ATOM     30  C   UNL     1       2.303 -12.413   2.430  0.00  0.00    +0.000 C 
BRANCH  30  31
ATOM     31  O   UNL     1       3.351 -12.930   3.133  0.00  0.00    +0.000 OA
BRANCH  31  32
ATOM     32  C   UNL     1       3.209 -14.297   3.533  0.00  0.00    +0.000 C 
ATOM     33  H   UNL     1       2.924 -14.355   4.588  0.00  0.00    +0.000 HD
ATOM     34  H   UNL     1       4.141 -14.843   3.354  0.00  0.00    +0.000 HD
ATOM     35  H   UNL     1       2.416 -14.746   2.930  0.00  0.00    +0.000 HD
ENDBRANCH  31  32
ENDBRANCH  30  31
ENDBRANCH  26  30
ENDBRANCH  23  26
ENDBRANCH  20  23
ENDBRANCH   1  20
TORSDOF 11
ENDMDL
MODEL 2
REMARK VINA RESULT:    -4.616     13.876     16.520
REMARK INTER + INTRA:          -7.701
REMARK INTER:                  -6.891
REMARK INTRA:                  -0.809
REMARK UNBOUND:                -0.386
REMARK  Name = 8050
REMARK  11 active torsions:
REMARK  status: ('A' for Active; 'I' for Inactive)
REMARK    1  A    between atoms: O_1  and  C_12
REMARK    2  A    between atoms: O_1  and  C_13
REMARK    3  A    between atoms: C_3  and  C_4
REMARK    4  A    between atoms: C_3  and  C_5
REMARK    5  A    between atoms: C_4  and  C_6
REMARK    6  A    between atoms: C_5  and  C_7
REMARK    7  A    between atoms: C_6  and  C_8
REMARK    8  A    between atoms: C_7  and  C_9
REMARK    9  A    between atoms: C_8  and  C_10
REMARK   10  A    between atoms: C_9  and  C_11
REMARK   11  A    between atoms: C_10  and  C_12
REMARK                            x       y       z     vdW  Elec       q    Type
REMARK                         _______ _______ _______ _____ _____    ______ ____
ROOT
ATOM      1  C   UNL     1       1.855  -5.598  15.832  0.00  0.00    +0.000 C 
ATOM      2  H   UNL     1       2.568  -5.210  16.571  0.00  0.00    +0.000 HD
ATOM      3  H   UNL     1       1.745  -6.673  16.024  0.00  0.00    +0.000 HD
ENDROOT
BRANCH   1   4
ATOM      4  C   UNL     1       0.502  -4.906  16.012  0.00  0.00    +0.000 C 
ATOM      5  H   UNL     1       0.611  -4.048  16.685  0.00  0.00    +0.000 HD
ATOM      6  H   UNL     1       0.156  -4.518  15.046  0.00  0.00    +0.000 HD
BRANCH   4   7
ATOM      7  C   UNL     1      -0.543  -5.870  16.577  0.00  0.00    +0.000 C 
ATOM      8  H   UNL     1      -1.546  -5.512  16.315  0.00  0.00    +0.000 HD
ATOM      9  H   UNL     1      -0.482  -5.869  17.672  0.00  0.00    +0.000 HD
BRANCH   7  10
ATOM     10  C   UNL     1      -0.379  -7.307  16.074  0.00  0.00    +0.000 C 
ATOM     11  H   UNL     1       0.543  -7.380  15.483  0.00  0.00    +0.000 HD
ATOM     12  H   UNL     1      -1.208  -7.542  15.396  0.00  0.00    +0.000 HD
BRANCH  10  13
ATOM     13  C   UNL     1      -0.335  -8.343  17.199  0.00  0.00    +0.000 C 
ATOM     14  H   UNL     1      -1.282  -8.893  17.235  0.00  0.00    +0.000 HD
ATOM     15  H   UNL     1       0.458  -9.074  16.999  0.00  0.00    +0.000 HD
BRANCH  13  16
ATOM     16  C   UNL     1      -0.079  -7.688  18.547  0.00  0.00    +0.000 C 
ATOM     17  H   UNL     1       0.579  -6.819  18.443  0.00  0.00    +0.000 HD
ATOM     18  H   UNL     1       0.400  -8.397  19.228  0.00  0.00    +0.000 HD
ATOM     19  H   UNL     1      -1.017  -7.356  19.005  0.00  0.00    +0.000 HD
ENDBRANCH  13  16
ENDBRANCH  10  13
ENDBRANCH   7  10
ENDBRANCH   4   7
ENDBRANCH   1   4
BRANCH   1  20
ATOM     20  C   UNL     1       2.406  -5.385  14.422  0.00  0.00    +0.000 C 
ATOM     21  H   UNL     1       1.812  -4.623  13.905  0.00  0.00    +0.000 HD
ATOM     22  H   UNL     1       3.434  -5.006  14.485  0.00  0.00    +0.000 HD
BRANCH  20  23
ATOM     23  C   UNL     1       2.384  -6.683  13.614  0.00  0.00    +0.000 C 
ATOM     24  H   UNL     1       2.947  -6.547  12.683  0.00  0.00    +0.000 HD
ATOM     25  H   UNL     1       1.350  -6.915  13.327  0.00  0.00    +0.000 HD
BRANCH  23  26
ATOM     26  C   UNL     1       2.971  -7.843  14.412  0.00  0.00    +0.000 C 
ATOM     27  H   UNL     1       2.167  -8.439  14.857  0.00  0.00    +0.000 HD
ATOM     28  H   UNL     1       3.619  -7.457  15.207  0.00  0.00    +0.000 HD
BRANCH  26  30
ATOM     29  O   UNL     1       4.035  -8.495  12.346  0.00  0.00    +0.000 OA
ATOM     30  C   UNL     1       3.790  -8.741  13.520  0.00  0.00    +0.000 C 
BRANCH  30  31
ATOM     31  O   UNL     1       4.217  -9.829  14.224  0.00  0.00    +0.000 OA
BRANCH  31  32
ATOM     32  C   UNL     1       4.003  -9.770  15.637  0.00  0.00    +0.000 C 
ATOM     33  H   UNL     1       4.666  -9.026  16.090  0.00  0.00    +0.000 HD
ATOM     34  H   UNL     1       4.163 -10.755  16.086  0.00  0.00    +0.000 HD
ATOM     35  H   UNL     1       2.967  -9.468  15.811  0.00  0.00    +0.000 HD
ENDBRANCH  31  32
ENDBRANCH  30  31
ENDBRANCH  26  30
ENDBRANCH  23  26
ENDBRANCH  20  23
ENDBRANCH   1  20
TORSDOF 11
ENDMDL
MODEL 3
REMARK VINA RESULT:    -4.585     13.843     16.350
REMARK INTER + INTRA:          -7.651
REMARK INTER:                  -6.760
REMARK INTRA:                  -0.891
REMARK UNBOUND:                -0.386
REMARK  Name = 8050
REMARK  11 active torsions:
REMARK  status: ('A' for Active; 'I' for Inactive)
REMARK    1  A    between atoms: O_1  and  C_12
REMARK    2  A    between atoms: O_1  and  C_13
REMARK    3  A    between atoms: C_3  and  C_4
REMARK    4  A    between atoms: C_3  and  C_5
REMARK    5  A    between atoms: C_4  and  C_6
REMARK    6  A    between atoms: C_5  and  C_7
REMARK    7  A    between atoms: C_6  and  C_8
REMARK    8  A    between atoms: C_7  and  C_9
REMARK    9  A    between atoms: C_8  and  C_10
REMARK   10  A    between atoms: C_9  and  C_11
REMARK   11  A    between atoms: C_10  and  C_12
REMARK                            x       y       z     vdW  Elec       q    Type
REMARK                         _______ _______ _______ _____ _____    ______ ____
ROOT
ATOM      1  C   UNL     1       3.175  -4.651  16.216  0.00  0.00    +0.000 C 
ATOM      2  H   UNL     1       3.894  -4.063  16.800  0.00  0.00    +0.000 HD
ATOM      3  H   UNL     1       2.691  -5.350  16.910  0.00  0.00    +0.000 HD
ENDROOT
BRANCH   1   4
ATOM      4  C   UNL     1       2.122  -3.720  15.610  0.00  0.00    +0.000 C 
ATOM      5  H   UNL     1       1.817  -2.972  16.351  0.00  0.00    +0.000 HD
ATOM      6  H   UNL     1       2.555  -3.178  14.761  0.00  0.00    +0.000 HD
BRANCH   4   7
ATOM      7  C   UNL     1       0.895  -4.505  15.140  0.00  0.00    +0.000 C 
ATOM      8  H   UNL     1       1.203  -5.244  14.390  0.00  0.00    +0.000 HD
ATOM      9  H   UNL     1       0.197  -3.820  14.641  0.00  0.00    +0.000 HD
BRANCH   7  10
ATOM     10  C   UNL     1       0.159  -5.221  16.276  0.00  0.00    +0.000 C 
ATOM     11  H   UNL     1      -0.640  -4.572  16.654  0.00  0.00    +0.000 HD
ATOM     12  H   UNL     1       0.858  -5.378  17.106  0.00  0.00    +0.000 HD
BRANCH  10  13
ATOM     13  C   UNL     1      -0.442  -6.565  15.859  0.00  0.00    +0.000 C 
ATOM     14  H   UNL     1      -1.530  -6.538  15.978  0.00  0.00    +0.000 HD
ATOM     15  H   UNL     1      -0.235  -6.750  14.798  0.00  0.00    +0.000 HD
BRANCH  13  16
ATOM     16  C   UNL     1       0.130  -7.707  16.684  0.00  0.00    +0.000 C 
ATOM     17  H   UNL     1       1.183  -7.879  16.442  0.00  0.00    +0.000 HD
ATOM     18  H   UNL     1      -0.420  -8.631  16.483  0.00  0.00    +0.000 HD
ATOM     19  H   UNL     1       0.054  -7.492  17.755  0.00  0.00    +0.000 HD
ENDBRANCH  13  16
ENDBRANCH  10  13
ENDBRANCH   7  10
ENDBRANCH   4   7
ENDBRANCH   1   4
BRANCH   1  20
ATOM     20  C   UNL     1       3.913  -5.438  15.132  0.00  0.00    +0.000 C 
ATOM     21  H   UNL     1       3.725  -4.982  14.153  0.00  0.00    +0.000 HD
ATOM     22  H   UNL     1       4.994  -5.383  15.312  0.00  0.00    +0.000 HD
BRANCH  20  23
ATOM     23  C   UNL     1       3.468  -6.900  15.106  0.00  0.00    +0.000 C 
ATOM     24  H   UNL     1       2.587  -7.029  15.746  0.00  0.00    +0.000 HD
ATOM     25  H   UNL     1       4.261  -7.529  15.530  0.00  0.00    +0.000 HD
BRANCH  23  26
ATOM     26  C   UNL     1       3.149  -7.358  13.687  0.00  0.00    +0.000 C 
ATOM     27  H   UNL     1       3.163  -6.503  13.003  0.00  0.00    +0.000 HD
ATOM     28  H   UNL     1       2.159  -7.826  13.661  0.00  0.00    +0.000 HD
BRANCH  26  30
ATOM     29  O   UNL     1       3.986  -9.574  13.224  0.00  0.00    +0.000 OA
ATOM     30  C   UNL     1       4.167  -8.363  13.211  0.00  0.00    +0.000 C 
BRANCH  30  31
ATOM     31  O   UNL     1       5.280  -7.717  12.757  0.00  0.00    +0.000 OA
BRANCH  31  32
ATOM     32  C   UNL     1       6.487  -7.994  13.474  0.00  0.00    +0.000 C 
ATOM     33  H   UNL     1       7.356  -7.832  12.829  0.00  0.00    +0.000 HD
ATOM     34  H   UNL     1       6.474  -9.019  13.857  0.00  0.00    +0.000 HD
ATOM     35  H   UNL     1       6.545  -7.303  14.319  0.00  0.00    +0.000 HD
ENDBRANCH  31  32
ENDBRANCH  30  31
ENDBRANCH  26  30
ENDBRANCH  23  26
ENDBRANCH  20  23
ENDBRANCH   1  20
TORSDOF 11
ENDMDL
MODEL 4
REMARK VINA RESULT:    -4.566      1.311      1.990
REMARK INTER + INTRA:          -7.621
REMARK INTER:                  -6.944
REMARK INTRA:                  -0.677
REMARK UNBOUND:                -0.386
REMARK  Name = 8050
REMARK  11 active torsions:
REMARK  status: ('A' for Active; 'I' for Inactive)
REMARK    1  A    between atoms: O_1  and  C_12
REMARK    2  A    between atoms: O_1  and  C_13
REMARK    3  A    between atoms: C_3  and  C_4
REMARK    4  A    between atoms: C_3  and  C_5
REMARK    5  A    between atoms: C_4  and  C_6
REMARK    6  A    between atoms: C_5  and  C_7
REMARK    7  A    between atoms: C_6  and  C_8
REMARK    8  A    between atoms: C_7  and  C_9
REMARK    9  A    between atoms: C_8  and  C_10
REMARK   10  A    between atoms: C_9  and  C_11
REMARK   11  A    between atoms: C_10  and  C_12
REMARK                            x       y       z     vdW  Elec       q    Type
REMARK                         _______ _______ _______ _____ _____    ______ ____
ROOT
ATOM      1  C   UNL     1       3.514 -11.289  -0.318  0.00  0.00    +0.000 C 
ATOM      2  H   UNL     1       3.669 -10.296  -0.757  0.00  0.00    +0.000 HD
ATOM      3  H   UNL     1       2.991 -11.896  -1.066  0.00  0.00    +0.000 HD
ENDROOT
BRANCH   1   4
ATOM      4  C   UNL     1       4.870 -11.926   0.000  0.00  0.00    +0.000 C 
ATOM      5  H   UNL     1       5.664 -11.176  -0.097  0.00  0.00    +0.000 HD
ATOM      6  H   UNL     1       4.878 -12.274   1.040  0.00  0.00    +0.000 HD
BRANCH   4   7
ATOM      7  C   UNL     1       5.160 -13.104  -0.933  0.00  0.00    +0.000 C 
ATOM      8  H   UNL     1       5.108 -12.762  -1.973  0.00  0.00    +0.000 HD
ATOM      9  H   UNL     1       4.379 -13.864  -0.808  0.00  0.00    +0.000 HD
BRANCH   7  10
ATOM     10  C   UNL     1       6.525 -13.752  -0.687  0.00  0.00    +0.000 C 
ATOM     11  H   UNL     1       6.921 -14.130  -1.638  0.00  0.00    +0.000 HD
ATOM     12  H   UNL     1       6.392 -14.621  -0.031  0.00  0.00    +0.000 HD
BRANCH  10  13
ATOM     13  C   UNL     1       7.547 -12.799  -0.064  0.00  0.00    +0.000 C 
ATOM     14  H   UNL     1       7.028 -11.984   0.453  0.00  0.00    +0.000 HD
ATOM     15  H   UNL     1       8.143 -13.333   0.686  0.00  0.00    +0.000 HD
BRANCH  13  16
ATOM     16  C   UNL     1       8.478 -12.219  -1.117  0.00  0.00    +0.000 C 
ATOM     17  H   UNL     1       8.139 -12.475  -2.126  0.00  0.00    +0.000 HD
ATOM     18  H   UNL     1       9.490 -12.615  -0.988  0.00  0.00    +0.000 HD
ATOM     19  H   UNL     1       8.527 -11.128  -1.037  0.00  0.00    +0.000 HD
ENDBRANCH  13  16
ENDBRANCH  10  13
ENDBRANCH   7  10
ENDBRANCH   4   7
ENDBRANCH   1   4
BRANCH   1  20
ATOM     20  C   UNL     1       2.649 -11.168   0.937  0.00  0.00    +0.000 C 
ATOM     21  H   UNL     1       2.426 -10.112   1.132  0.00  0.00    +0.000 HD
ATOM     22  H   UNL     1       1.691 -11.675   0.771  0.00  0.00    +0.000 HD
BRANCH  20  23
ATOM     23  C   UNL     1       3.348 -11.773   2.155  0.00  0.00    +0.000 C 
ATOM     24  H   UNL     1       3.702 -10.971   2.813  0.00  0.00    +0.000 HD
ATOM     25  H   UNL     1       4.236 -12.328   1.826  0.00  0.00    +0.000 HD
BRANCH  23  26
ATOM     26  C   UNL     1       2.415 -12.703   2.924  0.00  0.00    +0.000 C 
ATOM     27  H   UNL     1       1.510 -12.898   2.339  0.00  0.00    +0.000 HD
ATOM     28  H   UNL     1       2.136 -12.242   3.879  0.00  0.00    +0.000 HD
BRANCH  26  30
ATOM     29  O   UNL     1       2.919 -14.668   4.231  0.00  0.00    +0.000 OA
ATOM     30  C   UNL     1       3.091 -14.020   3.206  0.00  0.00    +0.000 C 
BRANCH  30  31
ATOM     31  O   UNL     1       3.884 -14.370   2.153  0.00  0.00    +0.000 OA
BRANCH  31  32
ATOM     32  C   UNL     1       4.677 -15.546   2.344  0.00  0.00    +0.000 C 
ATOM     33  H   UNL     1       5.130 -15.539   3.340  0.00  0.00    +0.000 HD
ATOM     34  H   UNL     1       5.446 -15.614   1.569  0.00  0.00    +0.000 HD
ATOM     35  H   UNL     1       4.019 -16.415   2.264  0.00  0.00    +0.000 HD
ENDBRANCH  31  32
ENDBRANCH  30  31
ENDBRANCH  26  30
ENDBRANCH  23  26
ENDBRANCH  20  23
ENDBRANCH   1  20
TORSDOF 11
ENDMDL
MODEL 5
REMARK VINA RESULT:    -4.565      3.832      6.710
REMARK INTER + INTRA:          -7.620
REMARK INTER:                  -7.283
REMARK INTRA:                  -0.337
REMARK UNBOUND:                -0.386
REMARK  Name = 8050
REMARK  11 active torsions:
REMARK  status: ('A' for Active; 'I' for Inactive)
REMARK    1  A    between atoms: O_1  and  C_12
REMARK    2  A    between atoms: O_1  and  C_13
REMARK    3  A    between atoms: C_3  and  C_4
REMARK    4  A    between atoms: C_3  and  C_5
REMARK    5  A    between atoms: C_4  and  C_6
REMARK    6  A    between atoms: C_5  and  C_7
REMARK    7  A    between atoms: C_6  and  C_8
REMARK    8  A    between atoms: C_7  and  C_9
REMARK    9  A    between atoms: C_8  and  C_10
REMARK   10  A    between atoms: C_9  and  C_11
REMARK   11  A    between atoms: C_10  and  C_12
REMARK                            x       y       z     vdW  Elec       q    Type
REMARK                         _______ _______ _______ _____ _____    ______ ____
ROOT
ATOM      1  C   UNL     1       6.431 -12.446   0.061  0.00  0.00    +0.000 C 
ATOM      2  H   UNL     1       5.762 -12.952  -0.645  0.00  0.00    +0.000 HD
ATOM      3  H   UNL     1       6.412 -11.377  -0.186  0.00  0.00    +0.000 HD
ENDROOT
BRANCH   1   4
ATOM      4  C   UNL     1       5.919 -12.649   1.490  0.00  0.00    +0.000 C 
ATOM      5  H   UNL     1       6.586 -13.333   2.028  0.00  0.00    +0.000 HD
ATOM      6  H   UNL     1       5.934 -11.693   2.026  0.00  0.00    +0.000 HD
BRANCH   4   7
ATOM      7  C   UNL     1       4.496 -13.212   1.493  0.00  0.00    +0.000 C 
ATOM      8  H   UNL     1       4.534 -14.291   1.302  0.00  0.00    +0.000 HD
ATOM      9  H   UNL     1       3.928 -12.764   0.668  0.00  0.00    +0.000 HD
BRANCH   7  10
ATOM     10  C   UNL     1       3.746 -12.961   2.804  0.00  0.00    +0.000 C 
ATOM     11  H   UNL     1       4.471 -12.743   3.598  0.00  0.00    +0.000 HD
ATOM     12  H   UNL     1       3.226 -13.882   3.096  0.00  0.00    +0.000 HD
BRANCH  10  13
ATOM     13  C   UNL     1       2.737 -11.815   2.718  0.00  0.00    +0.000 C 
ATOM     14  H   UNL     1       1.745 -12.170   3.018  0.00  0.00    +0.000 HD
ATOM     15  H   UNL     1       3.022 -11.017   3.413  0.00  0.00    +0.000 HD
BRANCH  13  16
ATOM     16  C   UNL     1       2.665 -11.246   1.309  0.00  0.00    +0.000 C 
ATOM     17  H   UNL     1       2.240 -10.237   1.314  0.00  0.00    +0.000 HD
ATOM     18  H   UNL     1       2.033 -11.877   0.677  0.00  0.00    +0.000 HD
ATOM     19  H   UNL     1       3.660 -11.198   0.855  0.00  0.00    +0.000 HD
ENDBRANCH  13  16
ENDBRANCH  10  13
ENDBRANCH   7  10
ENDBRANCH   4   7
ENDBRANCH   1   4
BRANCH   1  20
ATOM     20  C   UNL     1       7.854 -12.983  -0.101  0.00  0.00    +0.000 C 
ATOM     21  H   UNL     1       8.368 -12.964   0.866  0.00  0.00    +0.000 HD
ATOM     22  H   UNL     1       7.814 -14.030  -0.426  0.00  0.00    +0.000 HD
BRANCH  20  23
ATOM     23  C   UNL     1       8.646 -12.158  -1.117  0.00  0.00    +0.000 C 
ATOM     24  H   UNL     1       8.275 -12.364  -2.128  0.00  0.00    +0.000 HD
ATOM     25  H   UNL     1       9.699 -12.470  -1.096  0.00  0.00    +0.000 HD
BRANCH  23  26
ATOM     26  C   UNL     1       8.545 -10.666  -0.819  0.00  0.00    +0.000 C 
ATOM     27  H   UNL     1       7.980 -10.503   0.105  0.00  0.00    +0.000 HD
ATOM     28  H   UNL     1       8.039 -10.156  -1.647  0.00  0.00    +0.000 HD
BRANCH  26  30
ATOM     29  O   UNL     1      10.260  -9.421   0.334  0.00  0.00    +0.000 OA
ATOM     30  C   UNL     1       9.916 -10.063  -0.650  0.00  0.00    +0.000 C 
BRANCH  30  31
ATOM     31  O   UNL     1      10.692 -10.362  -1.731  0.00  0.00    +0.000 OA
BRANCH  31  32
ATOM     32  C   UNL     1      11.499  -9.289  -2.224  0.00  0.00    +0.000 C 
ATOM     33  H   UNL     1      11.192  -9.020  -3.240  0.00  0.00    +0.000 HD
ATOM     34  H   UNL     1      12.557  -9.569  -2.202  0.00  0.00    +0.000 HD
ATOM     35  H   UNL     1      11.350  -8.425  -1.572  0.00  0.00    +0.000 HD
ENDBRANCH  31  32
ENDBRANCH  30  31
ENDBRANCH  26  30
ENDBRANCH  23  26
ENDBRANCH  20  23
ENDBRANCH   1  20
TORSDOF 11
ENDMDL
MODEL 6
REMARK VINA RESULT:    -4.540     16.333     17.583
REMARK INTER + INTRA:          -7.580
REMARK INTER:                  -7.230
REMARK INTRA:                  -0.350
REMARK UNBOUND:                -0.386
REMARK  Name = 8050
REMARK  11 active torsions:
REMARK  status: ('A' for Active; 'I' for Inactive)
REMARK    1  A    between atoms: O_1  and  C_12
REMARK    2  A    between atoms: O_1  and  C_13
REMARK    3  A    between atoms: C_3  and  C_4
REMARK    4  A    between atoms: C_3  and  C_5
REMARK    5  A    between atoms: C_4  and  C_6
REMARK    6  A    between atoms: C_5  and  C_7
REMARK    7  A    between atoms: C_6  and  C_8
REMARK    8  A    between atoms: C_7  and  C_9
REMARK    9  A    between atoms: C_8  and  C_10
REMARK   10  A    between atoms: C_9  and  C_11
REMARK   11  A    between atoms: C_10  and  C_12
REMARK                            x       y       z     vdW  Elec       q    Type
REMARK                         _______ _______ _______ _____ _____    ______ ____
ROOT
ATOM      1  C   UNL     1      -0.709  -6.308  16.554  0.00  0.00    +0.000 C 
ATOM      2  H   UNL     1      -1.619  -5.806  16.903  0.00  0.00    +0.000 HD
ATOM      3  H   UNL     1      -0.986  -6.908  15.678  0.00  0.00    +0.000 HD
ENDROOT
BRANCH   1   4
ATOM      4  C   UNL     1       0.332  -5.262  16.149  0.00  0.00    +0.000 C 
ATOM      5  H   UNL     1      -0.137  -4.272  16.098  0.00  0.00    +0.000 HD
ATOM      6  H   UNL     1       1.118  -5.209  16.912  0.00  0.00    +0.000 HD
BRANCH   4   7
ATOM      7  C   UNL     1       0.960  -5.601  14.795  0.00  0.00    +0.000 C 
ATOM      8  H   UNL     1       0.190  -5.548  14.016  0.00  0.00    +0.000 HD
ATOM      9  H   UNL     1       1.322  -6.636  14.814  0.00  0.00    +0.000 HD
BRANCH   7  10
ATOM     10  C   UNL     1       2.121  -4.678  14.414  0.00  0.00    +0.000 C 
ATOM     11  H   UNL     1       2.011  -4.374  13.366  0.00  0.00    +0.000 HD
ATOM     12  H   UNL     1       3.059  -5.241  14.484  0.00  0.00    +0.000 HD
BRANCH  10  13
ATOM     13  C   UNL     1       2.215  -3.428  15.291  0.00  0.00    +0.000 C 
ATOM     14  H   UNL     1       1.304  -2.830  15.185  0.00  0.00    +0.000 HD
ATOM     15  H   UNL     1       2.294  -3.719  16.345  0.00  0.00    +0.000 HD
BRANCH  13  16
ATOM     16  C   UNL     1       3.422  -2.580  14.918  0.00  0.00    +0.000 C 
ATOM     17  H   UNL     1       3.158  -1.829  14.166  0.00  0.00    +0.000 HD
ATOM     18  H   UNL     1       4.214  -3.210  14.504  0.00  0.00    +0.000 HD
ATOM     19  H   UNL     1       3.823  -2.062  15.795  0.00  0.00    +0.000 HD
ENDBRANCH  13  16
ENDBRANCH  10  13
ENDBRANCH   7  10
ENDBRANCH   4   7
ENDBRANCH   1   4
BRANCH   1  20
ATOM     20  C   UNL     1      -0.174  -7.228  17.653  0.00  0.00    +0.000 C 
ATOM     21  H   UNL     1       0.837  -6.915  17.936  0.00  0.00    +0.000 HD
ATOM     22  H   UNL     1      -0.804  -7.134  18.547  0.00  0.00    +0.000 HD
BRANCH  20  23
ATOM     23  C   UNL     1      -0.147  -8.686  17.194  0.00  0.00    +0.000 C 
ATOM     24  H   UNL     1       0.746  -8.862  16.581  0.00  0.00    +0.000 HD
ATOM     25  H   UNL     1      -1.015  -8.881  16.551  0.00  0.00    +0.000 HD
BRANCH  23  26
ATOM     26  C   UNL     1      -0.159  -9.642  18.381  0.00  0.00    +0.000 C 
ATOM     27  H   UNL     1      -1.007  -9.418  19.037  0.00  0.00    +0.000 HD
ATOM     28  H   UNL     1       0.774  -9.542  18.948  0.00  0.00    +0.000 HD
BRANCH  26  30
ATOM     29  O   UNL     1       0.612 -11.684  17.351  0.00  0.00    +0.000 OA
ATOM     30  C   UNL     1      -0.285 -11.069  17.914  0.00  0.00    +0.000 C 
BRANCH  30  31
ATOM     31  O   UNL     1      -1.520 -11.554  18.232  0.00  0.00    +0.000 OA
BRANCH  31  32
ATOM     32  C   UNL     1      -2.337 -11.934  17.120  0.00  0.00    +0.000 C 
ATOM     33  H   UNL     1      -2.228 -11.211  16.306  0.00  0.00    +0.000 HD
ATOM     34  H   UNL     1      -3.384 -12.015  17.429  0.00  0.00    +0.000 HD
ATOM     35  H   UNL     1      -1.998 -12.912  16.769  0.00  0.00    +0.000 HD
ENDBRANCH  31  32
ENDBRANCH  30  31
ENDBRANCH  26  30
ENDBRANCH  23  26
ENDBRANCH  20  23
ENDBRANCH   1  20
TORSDOF 11
ENDMDL
MODEL 7
REMARK VINA RESULT:    -4.457     16.323     17.717
REMARK INTER + INTRA:          -7.447
REMARK INTER:                  -6.955
REMARK INTRA:                  -0.493
REMARK UNBOUND:                -0.386
REMARK  Name = 8050
REMARK  11 active torsions:
REMARK  status: ('A' for Active; 'I' for Inactive)
REMARK    1  A    between atoms: O_1  and  C_12
REMARK    2  A    between atoms: O_1  and  C_13
REMARK    3  A    between atoms: C_3  and  C_4
REMARK    4  A    between atoms: C_3  and  C_5
REMARK    5  A    between atoms: C_4  and  C_6
REMARK    6  A    between atoms: C_5  and  C_7
REMARK    7  A    between atoms: C_6  and  C_8
REMARK    8  A    between atoms: C_7  and  C_9
REMARK    9  A    between atoms: C_8  and  C_10
REMARK   10  A    between atoms: C_9  and  C_11
REMARK   11  A    between atoms: C_10  and  C_12
REMARK                            x       y       z     vdW  Elec       q    Type
REMARK                         _______ _______ _______ _____ _____    ______ ____
ROOT
ATOM      1  C   UNL     1      -0.470  -9.113  17.256  0.00  0.00    +0.000 C 
ATOM      2  H   UNL     1      -0.483  -9.001  16.165  0.00  0.00    +0.000 HD
ATOM      3  H   UNL     1      -1.495  -9.346  17.569  0.00  0.00    +0.000 HD
ENDROOT
BRANCH   1   4
ATOM      4  C   UNL     1       0.457 -10.268  17.642  0.00  0.00    +0.000 C 
ATOM      5  H   UNL     1       1.195 -10.434  16.848  0.00  0.00    +0.000 HD
ATOM      6  H   UNL     1       1.013 -10.006  18.551  0.00  0.00    +0.000 HD
BRANCH   4   7
ATOM      7  C   UNL     1      -0.334 -11.556  17.883  0.00  0.00    +0.000 C 
ATOM      8  H   UNL     1      -0.424 -11.729  18.962  0.00  0.00    +0.000 HD
ATOM      9  H   UNL     1       0.225 -12.406  17.472  0.00  0.00    +0.000 HD
BRANCH   7  10
ATOM     10  C   UNL     1      -1.733 -11.536  17.261  0.00  0.00    +0.000 C 
ATOM     11  H   UNL     1      -1.869 -10.596  16.710  0.00  0.00    +0.000 HD
ATOM     12  H   UNL     1      -2.478 -11.541  18.065  0.00  0.00    +0.000 HD
BRANCH  10  13
ATOM     13  C   UNL     1      -1.996 -12.711  16.319  0.00  0.00    +0.000 C 
ATOM     14  H   UNL     1      -2.835 -13.308  16.694  0.00  0.00    +0.000 HD
ATOM     15  H   UNL     1      -2.280 -12.336  15.328  0.00  0.00    +0.000 HD
BRANCH  13  16
ATOM     16  C   UNL     1      -0.768 -13.597  16.181  0.00  0.00    +0.000 C 
ATOM     17  H   UNL     1      -0.085 -13.458  17.026  0.00  0.00    +0.000 HD
ATOM     18  H   UNL     1      -0.225 -13.353  15.263  0.00  0.00    +0.000 HD
ATOM     19  H   UNL     1      -1.050 -14.654  16.139  0.00  0.00    +0.000 HD
ENDBRANCH  13  16
ENDBRANCH  10  13
ENDBRANCH   7  10
ENDBRANCH   4   7
ENDBRANCH   1   4
BRANCH   1  20
ATOM     20  C   UNL     1      -0.024  -7.801  17.903  0.00  0.00    +0.000 C 
ATOM     21  H   UNL     1      -0.430  -7.734  18.919  0.00  0.00    +0.000 HD
ATOM     22  H   UNL     1       1.070  -7.791  17.991  0.00  0.00    +0.000 HD
BRANCH  20  23
ATOM     23  C   UNL     1      -0.487  -6.593  17.088  0.00  0.00    +0.000 C 
ATOM     24  H   UNL     1       0.049  -5.697  17.421  0.00  0.00    +0.000 HD
ATOM     25  H   UNL     1      -1.553  -6.413  17.278  0.00  0.00    +0.000 HD
BRANCH  23  26
ATOM     26  C   UNL     1      -0.259  -6.811  15.596  0.00  0.00    +0.000 C 
ATOM     27  H   UNL     1      -1.192  -6.654  15.045  0.00  0.00    +0.000 HD
ATOM     28  H   UNL     1       0.099  -7.832  15.420  0.00  0.00    +0.000 HD
BRANCH  26  30
ATOM     29  O   UNL     1       1.654  -6.153  14.280  0.00  0.00    +0.000 OA
ATOM     30  C   UNL     1       0.771  -5.844  15.069  0.00  0.00    +0.000 C 
BRANCH  30  31
ATOM     31  O   UNL     1       0.548  -4.601  15.585  0.00  0.00    +0.000 OA
BRANCH  31  32
ATOM     32  C   UNL     1       1.609  -3.659  15.400  0.00  0.00    +0.000 C 
ATOM     33  H   UNL     1       1.907  -3.230  16.362  0.00  0.00    +0.000 HD
ATOM     34  H   UNL     1       1.301  -2.872  14.705  0.00  0.00    +0.000 HD
ATOM     35  H   UNL     1       2.464  -4.190  14.974  0.00  0.00    +0.000 HD
ENDBRANCH  31  32
ENDBRANCH  30  31
ENDBRANCH  26  30
ENDBRANCH  23  26
ENDBRANCH  20  23
ENDBRANCH   1  20
TORSDOF 11
ENDMDL
MODEL 8
REMARK VINA RESULT:    -4.435     14.001     16.379
REMARK INTER + INTRA:          -7.413
REMARK INTER:                  -6.807
REMARK INTRA:                  -0.606
REMARK UNBOUND:                -0.386
REMARK  Name = 8050
REMARK  11 active torsions:
REMARK  status: ('A' for Active; 'I' for Inactive)
REMARK    1  A    between atoms: O_1  and  C_12
REMARK    2  A    between atoms: O_1  and  C_13
REMARK    3  A    between atoms: C_3  and  C_4
REMARK    4  A    between atoms: C_3  and  C_5
REMARK    5  A    between atoms: C_4  and  C_6
REMARK    6  A    between atoms: C_5  and  C_7
REMARK    7  A    between atoms: C_6  and  C_8
REMARK    8  A    between atoms: C_7  and  C_9
REMARK    9  A    between atoms: C_8  and  C_10
REMARK   10  A    between atoms: C_9  and  C_11
REMARK   11  A    between atoms: C_10  and  C_12
REMARK                            x       y       z     vdW  Elec       q    Type
REMARK                         _______ _______ _______ _____ _____    ______ ____
ROOT
ATOM      1  C   UNL     1       0.186  -7.417  16.581  0.00  0.00    +0.000 C 
ATOM      2  H   UNL     1      -0.170  -7.567  17.608  0.00  0.00    +0.000 HD
ATOM      3  H   UNL     1      -0.231  -8.228  15.972  0.00  0.00    +0.000 HD
ENDROOT
BRANCH   1   4
ATOM      4  C   UNL     1      -0.318  -6.071  16.054  0.00  0.00    +0.000 C 
ATOM      5  H   UNL     1      -0.562  -6.158  14.989  0.00  0.00    +0.000 HD
ATOM      6  H   UNL     1      -1.242  -5.793  16.577  0.00  0.00    +0.000 HD
BRANCH   4   7
ATOM      7  C   UNL     1       0.728  -4.972  16.252  0.00  0.00    +0.000 C 
ATOM      8  H   UNL     1       1.616  -5.400  16.732  0.00  0.00    +0.000 HD
ATOM      9  H   UNL     1       0.330  -4.213  16.937  0.00  0.00    +0.000 HD
BRANCH   7  10
ATOM     10  C   UNL     1       1.146  -4.289  14.946  0.00  0.00    +0.000 C 
ATOM     11  H   UNL     1       0.274  -4.206  14.287  0.00  0.00    +0.000 HD
ATOM     12  H   UNL     1       1.874  -4.927  14.430  0.00  0.00    +0.000 HD
BRANCH  10  13
ATOM     13  C   UNL     1       1.750  -2.899  15.154  0.00  0.00    +0.000 C 
ATOM     14  H   UNL     1       1.220  -2.167  14.535  0.00  0.00    +0.000 HD
ATOM     15  H   UNL     1       1.625  -2.593  16.200  0.00  0.00    +0.000 HD
BRANCH  13  16
ATOM     16  C   UNL     1       3.230  -2.880  14.804  0.00  0.00    +0.000 C 
ATOM     17  H   UNL     1       3.780  -2.195  15.457  0.00  0.00    +0.000 HD
ATOM     18  H   UNL     1       3.370  -2.550  13.770  0.00  0.00    +0.000 HD
ATOM     19  H   UNL     1       3.669  -3.878  14.905  0.00  0.00    +0.000 HD
ENDBRANCH  13  16
ENDBRANCH  10  13
ENDBRANCH   7  10
ENDBRANCH   4   7
ENDBRANCH   1   4
BRANCH   1  20
ATOM     20  C   UNL     1       1.714  -7.489  16.550  0.00  0.00    +0.000 C 
ATOM     21  H   UNL     1       2.129  -6.478  16.471  0.00  0.00    +0.000 HD
ATOM     22  H   UNL     1       2.079  -7.916  17.492  0.00  0.00    +0.000 HD
BRANCH  20  23
ATOM     23  C   UNL     1       2.206  -8.335  15.376  0.00  0.00    +0.000 C 
ATOM     24  H   UNL     1       1.375  -8.925  14.972  0.00  0.00    +0.000 HD
ATOM     25  H   UNL     1       2.958  -9.051  15.733  0.00  0.00    +0.000 HD
BRANCH  23  26
ATOM     26  C   UNL     1       2.806  -7.464  14.277  0.00  0.00    +0.000 C 
ATOM     27  H   UNL     1       3.192  -6.532  14.704  0.00  0.00    +0.000 HD
ATOM     28  H   UNL     1       2.040  -7.230  13.529  0.00  0.00    +0.000 HD
BRANCH  26  30
ATOM     29  O   UNL     1       3.849  -8.714  12.496  0.00  0.00    +0.000 OA
ATOM     30  C   UNL     1       3.943  -8.179  13.593  0.00  0.00    +0.000 C 
BRANCH  30  31
ATOM     31  O   UNL     1       5.066  -8.112  14.365  0.00  0.00    +0.000 OA
BRANCH  31  32
ATOM     32  C   UNL     1       6.114  -7.282  13.856  0.00  0.00    +0.000 C 
ATOM     33  H   UNL     1       7.090  -7.684  14.147  0.00  0.00    +0.000 HD
ATOM     34  H   UNL     1       5.996  -6.256  14.218  0.00  0.00    +0.000 HD
ATOM     35  H   UNL     1       6.047  -7.281  12.766  0.00  0.00    +0.000 HD
ENDBRANCH  31  32
ENDBRANCH  30  31
ENDBRANCH  26  30
ENDBRANCH  23  26
ENDBRANCH  20  23
ENDBRANCH   1  20
TORSDOF 11
ENDMDL
MODEL 9
REMARK VINA RESULT:    -4.431     12.550     14.065
REMARK INTER + INTRA:          -7.406
REMARK INTER:                  -6.517
REMARK INTRA:                  -0.889
REMARK UNBOUND:                -0.386
REMARK  Name = 8050
REMARK  11 active torsions:
REMARK  status: ('A' for Active; 'I' for Inactive)
REMARK    1  A    between atoms: O_1  and  C_12
REMARK    2  A    between atoms: O_1  and  C_13
REMARK    3  A    between atoms: C_3  and  C_4
REMARK    4  A    between atoms: C_3  and  C_5
REMARK    5  A    between atoms: C_4  and  C_6
REMARK    6  A    between atoms: C_5  and  C_7
REMARK    7  A    between atoms: C_6  and  C_8
REMARK    8  A    between atoms: C_7  and  C_9
REMARK    9  A    between atoms: C_8  and  C_10
REMARK   10  A    between atoms: C_9  and  C_11
REMARK   11  A    between atoms: C_10  and  C_12
REMARK                            x       y       z     vdW  Elec       q    Type
REMARK                         _______ _______ _______ _____ _____    ______ ____
ROOT
ATOM      1  C   UNL     1      -3.931  -8.927 -10.226  0.00  0.00    +0.000 C 
ATOM      2  H   UNL     1      -4.949  -8.521 -10.273  0.00  0.00    +0.000 HD
ATOM      3  H   UNL     1      -3.640  -9.187 -11.251  0.00  0.00    +0.000 HD
ENDROOT
BRANCH   1   4
ATOM      4  C   UNL     1      -2.978  -7.862  -9.677  0.00  0.00    +0.000 C 
ATOM      5  H   UNL     1      -2.648  -8.143  -8.670  0.00  0.00    +0.000 HD
ATOM      6  H   UNL     1      -2.083  -7.808 -10.309  0.00  0.00    +0.000 HD
BRANCH   4   7
ATOM      7  C   UNL     1      -3.651  -6.488  -9.631  0.00  0.00    +0.000 C 
ATOM      8  H   UNL     1      -3.323  -5.895 -10.493  0.00  0.00    +0.000 HD
ATOM      9  H   UNL     1      -3.319  -5.953  -8.733  0.00  0.00    +0.000 HD
BRANCH   7  10
ATOM     10  C   UNL     1      -5.181  -6.560  -9.627  0.00  0.00    +0.000 C 
ATOM     11  H   UNL     1      -5.493  -7.596  -9.806  0.00  0.00    +0.000 HD
ATOM     12  H   UNL     1      -5.566  -5.965 -10.464  0.00  0.00    +0.000 HD
BRANCH  10  13
ATOM     13  C   UNL     1      -5.809  -6.066  -8.323  0.00  0.00    +0.000 C 
ATOM     14  H   UNL     1      -5.580  -6.766  -7.512  0.00  0.00    +0.000 HD
ATOM     15  H   UNL     1      -5.378  -5.096  -8.048  0.00  0.00    +0.000 HD
BRANCH  13  16
ATOM     16  C   UNL     1      -7.317  -5.921  -8.455  0.00  0.00    +0.000 C 
ATOM     17  H   UNL     1      -7.646  -6.139  -9.476  0.00  0.00    +0.000 HD
ATOM     18  H   UNL     1      -7.622  -4.898  -8.212  0.00  0.00    +0.000 HD
ATOM     19  H   UNL     1      -7.837  -6.601  -7.773  0.00  0.00    +0.000 HD
ENDBRANCH  13  16
ENDBRANCH  10  13
ENDBRANCH   7  10
ENDBRANCH   4   7
ENDBRANCH   1   4
BRANCH   1  20
ATOM     20  C   UNL     1      -3.918 -10.185  -9.356  0.00  0.00    +0.000 C 
ATOM     21  H   UNL     1      -4.833 -10.763  -9.529  0.00  0.00    +0.000 HD
ATOM     22  H   UNL     1      -3.074 -10.822  -9.648  0.00  0.00    +0.000 HD
BRANCH  20  23
ATOM     23  C   UNL     1      -3.810  -9.834  -7.872  0.00  0.00    +0.000 C 
ATOM     24  H   UNL     1      -3.214  -8.922  -7.752  0.00  0.00    +0.000 HD
ATOM     25  H   UNL     1      -3.272 -10.635  -7.347  0.00  0.00    +0.000 HD
BRANCH  23  26
ATOM     26  C   UNL     1      -5.187  -9.641  -7.246  0.00  0.00    +0.000 C 
ATOM     27  H   UNL     1      -5.966  -9.740  -8.010  0.00  0.00    +0.000 HD
ATOM     28  H   UNL     1      -5.251  -8.647  -6.789  0.00  0.00    +0.000 HD
BRANCH  26  30
ATOM     29  O   UNL     1      -5.039 -11.832  -6.246  0.00  0.00    +0.000 OA
ATOM     30  C   UNL     1      -5.436 -10.676  -6.179  0.00  0.00    +0.000 C 
BRANCH  30  31
ATOM     31  O   UNL     1      -6.136 -10.121  -5.148  0.00  0.00    +0.000 OA
BRANCH  31  32
ATOM     32  C   UNL     1      -6.288  -8.699  -5.203  0.00  0.00    +0.000 C 
ATOM     33  H   UNL     1      -7.338  -8.437  -5.364  0.00  0.00    +0.000 HD
ATOM     34  H   UNL     1      -5.659  -8.281  -5.995  0.00  0.00    +0.000 HD
ATOM     35  H   UNL     1      -5.967  -8.286  -4.244  0.00  0.00    +0.000 HD
ENDBRANCH  31  32
ENDBRANCH  30  31
ENDBRANCH  26  30
ENDBRANCH  23  26
ENDBRANCH  20  23
ENDBRANCH   1  20
TORSDOF 11
ENDMDL
MODEL 10
REMARK VINA RESULT:    -4.366      4.606      6.435
REMARK INTER + INTRA:          -7.303
REMARK INTER:                  -6.918
REMARK INTRA:                  -0.386
REMARK UNBOUND:                -0.386
REMARK  Name = 8050
REMARK  11 active torsions:
REMARK  status: ('A' for Active; 'I' for Inactive)
REMARK    1  A    between atoms: O_1  and  C_12
REMARK    2  A    between atoms: O_1  and  C_13
REMARK    3  A    between atoms: C_3  and  C_4
REMARK    4  A    between atoms: C_3  and  C_5
REMARK    5  A    between atoms: C_4  and  C_6
REMARK    6  A    between atoms: C_5  and  C_7
REMARK    7  A    between atoms: C_6  and  C_8
REMARK    8  A    between atoms: C_7  and  C_9
REMARK    9  A    between atoms: C_8  and  C_10
REMARK   10  A    between atoms: C_9  and  C_11
REMARK   11  A    between atoms: C_10  and  C_12
REMARK                            x       y       z     vdW  Elec       q    Type
REMARK                         _______ _______ _______ _____ _____    ______ ____
ROOT
ATOM      1  C   UNL     1      11.092  -9.543  -1.845  0.00  0.00    +0.000 C 
ATOM      2  H   UNL     1      12.090  -9.439  -1.402  0.00  0.00    +0.000 HD
ATOM      3  H   UNL     1      10.901  -8.634  -2.428  0.00  0.00    +0.000 HD
ENDROOT
BRANCH   1   4
ATOM      4  C   UNL     1      11.066 -10.760  -2.772  0.00  0.00    +0.000 C 
ATOM      5  H   UNL     1      11.135 -11.680  -2.179  0.00  0.00    +0.000 HD
ATOM      6  H   UNL     1      10.111 -10.793  -3.310  0.00  0.00    +0.000 HD
BRANCH   4   7
ATOM      7  C   UNL     1      12.217 -10.713  -3.780  0.00  0.00    +0.000 C 
ATOM      8  H   UNL     1      11.845 -10.326  -4.736  0.00  0.00    +0.000 HD
ATOM      9  H   UNL     1      12.574 -11.733  -3.968  0.00  0.00    +0.000 HD
BRANCH   7  10
ATOM     10  C   UNL     1      13.395  -9.853  -3.316  0.00  0.00    +0.000 C 
ATOM     11  H   UNL     1      13.746 -10.215  -2.342  0.00  0.00    +0.000 HD
ATOM     12  H   UNL     1      13.045  -8.824  -3.164  0.00  0.00    +0.000 HD
BRANCH  10  13
ATOM     13  C   UNL     1      14.567  -9.847  -4.299  0.00  0.00    +0.000 C 
ATOM     14  H   UNL     1      15.484  -9.544  -3.782  0.00  0.00    +0.000 HD
ATOM     15  H   UNL     1      14.731 -10.860  -4.687  0.00  0.00    +0.000 HD
BRANCH  13  16
ATOM     16  C   UNL     1      14.309  -8.905  -5.465  0.00  0.00    +0.000 C 
ATOM     17  H   UNL     1      13.688  -9.385  -6.228  0.00  0.00    +0.000 HD
ATOM     18  H   UNL     1      15.254  -8.611  -5.931  0.00  0.00    +0.000 HD
ATOM     19  H   UNL     1      13.799  -7.997  -5.128  0.00  0.00    +0.000 HD
ENDBRANCH  13  16
ENDBRANCH  10  13
ENDBRANCH   7  10
ENDBRANCH   4   7
ENDBRANCH   1   4
BRANCH   1  20
ATOM     20  C   UNL     1      10.046  -9.666  -0.736  0.00  0.00    +0.000 C 
ATOM     21  H   UNL     1      10.541  -9.652   0.242  0.00  0.00    +0.000 HD
ATOM     22  H   UNL     1       9.373  -8.801  -0.770  0.00  0.00    +0.000 HD
BRANCH  20  23
ATOM     23  C   UNL     1       9.235 -10.955  -0.877  0.00  0.00    +0.000 C 
ATOM     24  H   UNL     1       9.692 -11.746  -0.269  0.00  0.00    +0.000 HD
ATOM     25  H   UNL     1       9.274 -11.296  -1.920  0.00  0.00    +0.000 HD
BRANCH  23  26
ATOM     26  C   UNL     1       7.785 -10.748  -0.455  0.00  0.00    +0.000 C 
ATOM     27  H   UNL     1       7.211 -10.312  -1.280  0.00  0.00    +0.000 HD
ATOM     28  H   UNL     1       7.742 -10.077   0.410  0.00  0.00    +0.000 HD
BRANCH  26  30
ATOM     29  O   UNL     1       6.811 -12.913  -0.886  0.00  0.00    +0.000 OA
ATOM     30  C   UNL     1       7.149 -12.060  -0.075  0.00  0.00    +0.000 C 
BRANCH  30  31
ATOM     31  O   UNL     1       7.035 -12.146   1.281  0.00  0.00    +0.000 OA
BRANCH  31  32
ATOM     32  C   UNL     1       5.707 -12.345   1.776  0.00  0.00    +0.000 C 
ATOM     33  H   UNL     1       5.678 -13.210   2.446  0.00  0.00    +0.000 HD
ATOM     34  H   UNL     1       5.008 -12.477   0.944  0.00  0.00    +0.000 HD
ATOM     35  H   UNL     1       5.418 -11.455   2.340  0.00  0.00    +0.000 HD
ENDBRANCH  31  32
ENDBRANCH  30  31
ENDBRANCH  26  30
ENDBRANCH  23  26
ENDBRANCH  20  23
ENDBRANCH   1  20
TORSDOF 11
ENDMDL
