MODEL 1
REMARK VINA RESULT:    -5.593      0.000      0.000
REMARK INTER + INTRA:          -8.063
REMARK INTER:                  -7.759
REMARK INTRA:                  -0.305
REMARK UNBOUND:                -0.509
REMARK  Name = 605629
REMARK  8 active torsions:
REMARK  status: ('A' for Active; 'I' for Inactive)
REMARK    1  A    between atoms: O_1  and  C_14
REMARK    2  A    between atoms: O_1  and  C_15
REMARK    3  A    between atoms: C_3  and  C_4
REMARK    4  A    between atoms: C_3  and  C_5
REMARK    5  A    between atoms: C_3  and  C_6
REMARK    6  A    between atoms: C_3  and  C_7
REMARK    7  A    between atoms: C_10  and  C_13
REMARK    8  A    between atoms: C_13  and  C_14
REMARK                            x       y       z     vdW  Elec       q    Type
REMARK                         _______ _______ _______ _____ _____    ______ ____
ROOT
ATOM      1  C   UNL     1       8.017 -11.416  -0.673  0.00  0.00    +0.000 A 
ATOM      2  C   UNL     1       9.026 -11.979  -1.412  0.00  0.00    +0.000 A 
ATOM      3  C   UNL     1       8.002 -10.096  -0.298  0.00  0.00    +0.000 A 
ATOM      4  C   UNL     1      10.110  -9.820  -1.445  0.00  0.00    +0.000 A 
ATOM      5  C   UNL     1      10.090 -11.167  -1.806  0.00  0.00    +0.000 A 
ATOM      6  C   UNL     1       9.066  -9.284  -0.692  0.00  0.00    +0.000 A 
ATOM      7  H   UNL     1       9.033 -13.024  -1.704  0.00  0.00    +0.000 HD
ATOM      8  H   UNL     1       7.219  -9.629   0.284  0.00  0.00    +0.000 HD
ATOM      9  H   UNL     1      10.900 -11.597  -2.391  0.00  0.00    +0.000 HD
ATOM     10  H   UNL     1       9.070  -8.237  -0.403  0.00  0.00    +0.000 HD
ENDROOT
BRANCH   4  11
ATOM     11  C   UNL     1      11.248  -8.952  -1.865  0.00  0.00    +0.000 C 
ATOM     12  H   UNL     1      10.882  -7.944  -2.095  0.00  0.00    +0.000 HD
ATOM     13  H   UNL     1      11.963  -8.858  -1.038  0.00  0.00    +0.000 HD
BRANCH  11  15
ATOM     14  O   UNL     1      11.511  -9.589  -4.198  0.00  0.00    +0.000 OA
ATOM     15  C   UNL     1      11.991  -9.475  -3.079  0.00  0.00    +0.000 C 
BRANCH  15  16
ATOM     16  O   UNL     1      13.272  -9.793  -2.723  0.00  0.00    +0.000 OA
BRANCH  16  17
ATOM     17  C   UNL     1      14.167 -10.056  -3.809  0.00  0.00    +0.000 C 
ATOM     18  H   UNL     1      14.853  -9.215  -3.946  0.00  0.00    +0.000 HD
ATOM     19  H   UNL     1      13.602 -10.247  -4.726  0.00  0.00    +0.000 HD
ATOM     20  H   UNL     1      14.749 -10.948  -3.562  0.00  0.00    +0.000 HD
ENDBRANCH  16  17
ENDBRANCH  15  16
ENDBRANCH  11  15
ENDBRANCH   4  11
BRANCH   1  21
ATOM     21  C   UNL     1       6.844 -12.311  -0.239  0.00  0.00    +0.000 C 
BRANCH  21  22
ATOM     22  C   UNL     1       6.770 -12.360   1.303  0.00  0.00    +0.000 C 
ATOM     23  H   UNL     1       7.023 -11.387   1.741  0.00  0.00    +0.000 HD
ATOM     24  H   UNL     1       5.771 -12.621   1.666  0.00  0.00    +0.000 HD
ATOM     25  H   UNL     1       7.472 -13.099   1.708  0.00  0.00    +0.000 HD
ENDBRANCH  21  22
BRANCH  21  26
ATOM     26  C   UNL     1       7.054 -13.742  -0.782  0.00  0.00    +0.000 C 
ATOM     27  H   UNL     1       7.699 -13.763  -1.667  0.00  0.00    +0.000 HD
ATOM     28  H   UNL     1       7.527 -14.384  -0.029  0.00  0.00    +0.000 HD
ATOM     29  H   UNL     1       6.099 -14.202  -1.060  0.00  0.00    +0.000 HD
ENDBRANCH  21  26
BRANCH  21  30
ATOM     30  C   UNL     1       5.467 -11.829  -0.748  0.00  0.00    +0.000 C 
ATOM     31  H   UNL     1       5.223 -10.843  -0.333  0.00  0.00    +0.000 HD
ATOM     32  H   UNL     1       5.449 -11.721  -1.839  0.00  0.00    +0.000 HD
ATOM     33  H   UNL     1       4.658 -12.503  -0.447  0.00  0.00    +0.000 HD
ENDBRANCH  21  30
ENDBRANCH   1  21
TORSDOF 8
ENDMDL
MODEL 2
REMARK VINA RESULT:    -5.444      2.713      5.979
REMARK INTER + INTRA:          -7.863
REMARK INTER:                  -7.521
REMARK INTRA:                  -0.341
REMARK UNBOUND:                -0.509
REMARK  Name = 605629
REMARK  8 active torsions:
REMARK  status: ('A' for Active; 'I' for Inactive)
REMARK    1  A    between atoms: O_1  and  C_14
REMARK    2  A    between atoms: O_1  and  C_15
REMARK    3  A    between atoms: C_3  and  C_4
REMARK    4  A    between atoms: C_3  and  C_5
REMARK    5  A    between atoms: C_3  and  C_6
REMARK    6  A    between atoms: C_3  and  C_7
REMARK    7  A    between atoms: C_10  and  C_13
REMARK    8  A    between atoms: C_13  and  C_14
REMARK                            x       y       z     vdW  Elec       q    Type
REMARK                         _______ _______ _______ _____ _____    ______ ____
ROOT
ATOM      1  C   UNL     1      11.396 -10.423  -2.780  0.00  0.00    +0.000 A 
ATOM      2  C   UNL     1      10.559 -11.509  -2.729  0.00  0.00    +0.000 A 
ATOM      3  C   UNL     1      11.248  -9.317  -1.980  0.00  0.00    +0.000 A 
ATOM      4  C   UNL     1       9.321 -10.384  -0.987  0.00  0.00    +0.000 A 
ATOM      5  C   UNL     1       9.504 -11.490  -1.817  0.00  0.00    +0.000 A 
ATOM      6  C   UNL     1      10.193  -9.298  -1.068  0.00  0.00    +0.000 A 
ATOM      7  H   UNL     1      10.682 -12.379  -3.365  0.00  0.00    +0.000 HD
ATOM      8  H   UNL     1      11.893  -8.449  -2.002  0.00  0.00    +0.000 HD
ATOM      9  H   UNL     1       8.830 -12.341  -1.765  0.00  0.00    +0.000 HD
ATOM     10  H   UNL     1      10.059  -8.430  -0.429  0.00  0.00    +0.000 HD
ENDROOT
BRANCH   4  11
ATOM     11  C   UNL     1       8.192 -10.362  -0.012  0.00  0.00    +0.000 C 
ATOM     12  H   UNL     1       8.556 -10.038   0.970  0.00  0.00    +0.000 HD
ATOM     13  H   UNL     1       7.439  -9.634  -0.337  0.00  0.00    +0.000 HD
BRANCH  11  15
ATOM     14  O   UNL     1       7.946 -12.633   0.825  0.00  0.00    +0.000 OA
ATOM     15  C   UNL     1       7.512 -11.707   0.154  0.00  0.00    +0.000 C 
BRANCH  15  16
ATOM     16  O   UNL     1       6.345 -11.714  -0.557  0.00  0.00    +0.000 OA
BRANCH  16  17
ATOM     17  C   UNL     1       5.742 -13.000  -0.740  0.00  0.00    +0.000 C 
ATOM     18  H   UNL     1       4.833 -12.909  -1.343  0.00  0.00    +0.000 HD
ATOM     19  H   UNL     1       5.519 -13.454   0.230  0.00  0.00    +0.000 HD
ATOM     20  H   UNL     1       6.454 -13.637  -1.271  0.00  0.00    +0.000 HD
ENDBRANCH  16  17
ENDBRANCH  15  16
ENDBRANCH  11  15
ENDBRANCH   4  11
BRANCH   1  21
ATOM     21  C   UNL     1      12.559 -10.444  -3.786  0.00  0.00    +0.000 C 
BRANCH  21  22
ATOM     22  C   UNL     1      12.115  -9.783  -5.109  0.00  0.00    +0.000 C 
ATOM     23  H   UNL     1      12.926  -9.186  -5.543  0.00  0.00    +0.000 HD
ATOM     24  H   UNL     1      11.820 -10.517  -5.865  0.00  0.00    +0.000 HD
ATOM     25  H   UNL     1      11.260  -9.114  -4.947  0.00  0.00    +0.000 HD
ENDBRANCH  21  22
BRANCH  21  26
ATOM     26  C   UNL     1      12.977 -11.905  -4.065  0.00  0.00    +0.000 C 
ATOM     27  H   UNL     1      14.064 -12.025  -4.123  0.00  0.00    +0.000 HD
ATOM     28  H   UNL     1      12.626 -12.574  -3.271  0.00  0.00    +0.000 HD
ATOM     29  H   UNL     1      12.556 -12.262  -5.012  0.00  0.00    +0.000 HD
ENDBRANCH  21  26
BRANCH  21  30
ATOM     30  C   UNL     1      13.820  -9.695  -3.301  0.00  0.00    +0.000 C 
ATOM     31  H   UNL     1      14.507 -10.380  -2.789  0.00  0.00    +0.000 HD
ATOM     32  H   UNL     1      14.382  -9.255  -4.134  0.00  0.00    +0.000 HD
ATOM     33  H   UNL     1      13.578  -8.903  -2.583  0.00  0.00    +0.000 HD
ENDBRANCH  21  30
ENDBRANCH   1  21
TORSDOF 8
ENDMDL
MODEL 3
REMARK VINA RESULT:    -5.193     23.265     24.952
REMARK INTER + INTRA:          -7.523
REMARK INTER:                  -7.003
REMARK INTRA:                  -0.520
REMARK UNBOUND:                -0.509
REMARK  Name = 605629
REMARK  8 active torsions:
REMARK  status: ('A' for Active; 'I' for Inactive)
REMARK    1  A    between atoms: O_1  and  C_14
REMARK    2  A    between atoms: O_1  and  C_15
REMARK    3  A    between atoms: C_3  and  C_4
REMARK    4  A    between atoms: C_3  and  C_5
REMARK    5  A    between atoms: C_3  and  C_6
REMARK    6  A    between atoms: C_3  and  C_7
REMARK    7  A    between atoms: C_10  and  C_13
REMARK    8  A    between atoms: C_13  and  C_14
REMARK                            x       y       z     vdW  Elec       q    Type
REMARK                         _______ _______ _______ _____ _____    ______ ____
ROOT
ATOM      1  C   UNL     1       6.986  12.887   0.123  0.00  0.00    +0.000 A 
ATOM      2  C   UNL     1       7.172  13.805   1.125  0.00  0.00    +0.000 A 
ATOM      3  C   UNL     1       6.202  11.768   0.260  0.00  0.00    +0.000 A 
ATOM      4  C   UNL     1       5.726  12.466   2.523  0.00  0.00    +0.000 A 
ATOM      5  C   UNL     1       6.531  13.592   2.346  0.00  0.00    +0.000 A 
ATOM      6  C   UNL     1       5.561  11.555   1.480  0.00  0.00    +0.000 A 
ATOM      7  H   UNL     1       7.793  14.687   1.010  0.00  0.00    +0.000 HD
ATOM      8  H   UNL     1       6.040  11.030  -0.515  0.00  0.00    +0.000 HD
ATOM      9  H   UNL     1       6.669  14.308   3.152  0.00  0.00    +0.000 HD
ATOM     10  H   UNL     1       4.939  10.674   1.607  0.00  0.00    +0.000 HD
ENDROOT
BRANCH   4  11
ATOM     11  C   UNL     1       5.042  12.238   3.828  0.00  0.00    +0.000 C 
ATOM     12  H   UNL     1       4.634  11.220   3.861  0.00  0.00    +0.000 HD
ATOM     13  H   UNL     1       5.769  12.323   4.645  0.00  0.00    +0.000 HD
BRANCH  11  15
ATOM     14  O   UNL     1       3.886  14.021   5.012  0.00  0.00    +0.000 OA
ATOM     15  C   UNL     1       3.910  13.210   4.096  0.00  0.00    +0.000 C 
BRANCH  15  16
ATOM     16  O   UNL     1       2.932  13.037   3.157  0.00  0.00    +0.000 OA
BRANCH  16  17
ATOM     17  C   UNL     1       2.495  14.228   2.494  0.00  0.00    +0.000 C 
ATOM     18  H   UNL     1       1.972  14.882   3.199  0.00  0.00    +0.000 HD
ATOM     19  H   UNL     1       1.849  13.975   1.649  0.00  0.00    +0.000 HD
ATOM     20  H   UNL     1       3.378  14.752   2.118  0.00  0.00    +0.000 HD
ENDBRANCH  16  17
ENDBRANCH  15  16
ENDBRANCH  11  15
ENDBRANCH   4  11
BRANCH   1  21
ATOM     21  C   UNL     1       7.692  13.122  -1.223  0.00  0.00    +0.000 C 
BRANCH  21  22
ATOM     22  C   UNL     1       8.791  14.193  -1.052  0.00  0.00    +0.000 C 
ATOM     23  H   UNL     1       9.283  14.102  -0.076  0.00  0.00    +0.000 HD
ATOM     24  H   UNL     1       9.576  14.112  -1.812  0.00  0.00    +0.000 HD
ATOM     25  H   UNL     1       8.370  15.204  -1.120  0.00  0.00    +0.000 HD
ENDBRANCH  21  22
BRANCH  21  26
ATOM     26  C   UNL     1       6.666  13.610  -2.269  0.00  0.00    +0.000 C 
ATOM     27  H   UNL     1       5.751  13.997  -1.809  0.00  0.00    +0.000 HD
ATOM     28  H   UNL     1       7.081  14.420  -2.881  0.00  0.00    +0.000 HD
ATOM     29  H   UNL     1       6.376  12.797  -2.946  0.00  0.00    +0.000 HD
ENDBRANCH  21  26
BRANCH  21  30
ATOM     30  C   UNL     1       8.369  11.860  -1.803  0.00  0.00    +0.000 C 
ATOM     31  H   UNL     1       8.602  11.143  -1.007  0.00  0.00    +0.000 HD
ATOM     32  H   UNL     1       7.719  11.336  -2.514  0.00  0.00    +0.000 HD
ATOM     33  H   UNL     1       9.318  12.094  -2.300  0.00  0.00    +0.000 HD
ENDBRANCH  21  30
ENDBRANCH   1  21
TORSDOF 8
ENDMDL
MODEL 4
REMARK VINA RESULT:    -5.135     23.303     24.859
REMARK INTER + INTRA:          -7.445
REMARK INTER:                  -6.960
REMARK INTRA:                  -0.485
REMARK UNBOUND:                -0.509
REMARK  Name = 605629
REMARK  8 active torsions:
REMARK  status: ('A' for Active; 'I' for Inactive)
REMARK    1  A    between atoms: O_1  and  C_14
REMARK    2  A    between atoms: O_1  and  C_15
REMARK    3  A    between atoms: C_3  and  C_4
REMARK    4  A    between atoms: C_3  and  C_5
REMARK    5  A    between atoms: C_3  and  C_6
REMARK    6  A    between atoms: C_3  and  C_7
REMARK    7  A    between atoms: C_10  and  C_13
REMARK    8  A    between atoms: C_13  and  C_14
REMARK                            x       y       z     vdW  Elec       q    Type
REMARK                         _______ _______ _______ _____ _____    ______ ____
ROOT
ATOM      1  C   UNL     1       7.041  12.952   0.025  0.00  0.00    +0.000 A 
ATOM      2  C   UNL     1       6.248  11.842   0.172  0.00  0.00    +0.000 A 
ATOM      3  C   UNL     1       7.274  13.852   1.035  0.00  0.00    +0.000 A 
ATOM      4  C   UNL     1       5.864  12.507   2.463  0.00  0.00    +0.000 A 
ATOM      5  C   UNL     1       5.650  11.615   1.411  0.00  0.00    +0.000 A 
ATOM      6  C   UNL     1       6.676  13.625   2.275  0.00  0.00    +0.000 A 
ATOM      7  H   UNL     1       6.067  11.135  -0.631  0.00  0.00    +0.000 HD
ATOM      8  H   UNL     1       7.894  14.734   0.944  0.00  0.00    +0.000 HD
ATOM      9  H   UNL     1       5.017  10.741   1.545  0.00  0.00    +0.000 HD
ATOM     10  H   UNL     1       6.848  14.328   3.084  0.00  0.00    +0.000 HD
ENDROOT
BRANCH   4  11
ATOM     11  C   UNL     1       5.223  12.264   3.787  0.00  0.00    +0.000 C 
ATOM     12  H   UNL     1       5.023  11.194   3.913  0.00  0.00    +0.000 HD
ATOM     13  H   UNL     1       5.911  12.563   4.589  0.00  0.00    +0.000 HD
BRANCH  11  15
ATOM     14  O   UNL     1       3.004  13.043   3.164  0.00  0.00    +0.000 OA
ATOM     15  C   UNL     1       3.920  13.015   3.975  0.00  0.00    +0.000 C 
BRANCH  15  16
ATOM     16  O   UNL     1       3.932  13.648   5.187  0.00  0.00    +0.000 OA
BRANCH  16  17
ATOM     17  C   UNL     1       4.995  13.271   6.069  0.00  0.00    +0.000 C 
ATOM     18  H   UNL     1       5.682  14.110   6.214  0.00  0.00    +0.000 HD
ATOM     19  H   UNL     1       5.525  12.400   5.671  0.00  0.00    +0.000 HD
ATOM     20  H   UNL     1       4.557  13.004   7.035  0.00  0.00    +0.000 HD
ENDBRANCH  16  17
ENDBRANCH  15  16
ENDBRANCH  11  15
ENDBRANCH   4  11
BRANCH   1  21
ATOM     21  C   UNL     1       7.700  13.203  -1.341  0.00  0.00    +0.000 C 
BRANCH  21  22
ATOM     22  C   UNL     1       8.395  11.912  -1.828  0.00  0.00    +0.000 C 
ATOM     23  H   UNL     1       7.957  11.026  -1.353  0.00  0.00    +0.000 HD
ATOM     24  H   UNL     1       8.304  11.770  -2.909  0.00  0.00    +0.000 HD
ATOM     25  H   UNL     1       9.464  11.925  -1.585  0.00  0.00    +0.000 HD
ENDBRANCH  21  22
BRANCH  21  26
ATOM     26  C   UNL     1       8.752  14.327  -1.212  0.00  0.00    +0.000 C 
ATOM     27  H   UNL     1       9.773  13.938  -1.143  0.00  0.00    +0.000 HD
ATOM     28  H   UNL     1       8.724  14.994  -2.081  0.00  0.00    +0.000 HD
ATOM     29  H   UNL     1       8.570  14.936  -0.319  0.00  0.00    +0.000 HD
ENDBRANCH  21  26
BRANCH  21  30
ATOM     30  C   UNL     1       6.708  13.632  -2.446  0.00  0.00    +0.000 C 
ATOM     31  H   UNL     1       6.705  12.908  -3.269  0.00  0.00    +0.000 HD
ATOM     32  H   UNL     1       5.678  13.685  -2.073  0.00  0.00    +0.000 HD
ATOM     33  H   UNL     1       6.974  14.601  -2.883  0.00  0.00    +0.000 HD
ENDBRANCH  21  30
ENDBRANCH   1  21
TORSDOF 8
ENDMDL
MODEL 5
REMARK VINA RESULT:    -4.988     20.450     22.033
REMARK INTER + INTRA:          -7.246
REMARK INTER:                  -6.724
REMARK INTRA:                  -0.522
REMARK UNBOUND:                -0.509
REMARK  Name = 605629
REMARK  8 active torsions:
REMARK  status: ('A' for Active; 'I' for Inactive)
REMARK    1  A    between atoms: O_1  and  C_14
REMARK    2  A    between atoms: O_1  and  C_15
REMARK    3  A    between atoms: C_3  and  C_4
REMARK    4  A    between atoms: C_3  and  C_5
REMARK    5  A    between atoms: C_3  and  C_6
REMARK    6  A    between atoms: C_3  and  C_7
REMARK    7  A    between atoms: C_10  and  C_13
REMARK    8  A    between atoms: C_13  and  C_14
REMARK                            x       y       z     vdW  Elec       q    Type
REMARK                         _______ _______ _______ _____ _____    ______ ____
ROOT
ATOM      1  C   UNL     1      15.424  10.245   2.919  0.00  0.00    +0.000 A 
ATOM      2  C   UNL     1      15.807   9.785   1.684  0.00  0.00    +0.000 A 
ATOM      3  C   UNL     1      15.867   9.699   4.098  0.00  0.00    +0.000 A 
ATOM      4  C   UNL     1      17.165   8.128   2.800  0.00  0.00    +0.000 A 
ATOM      5  C   UNL     1      16.692   8.710   1.623  0.00  0.00    +0.000 A 
ATOM      6  C   UNL     1      16.753   8.624   4.037  0.00  0.00    +0.000 A 
ATOM      7  H   UNL     1      15.452  10.221   0.756  0.00  0.00    +0.000 HD
ATOM      8  H   UNL     1      15.581  10.043   5.083  0.00  0.00    +0.000 HD
ATOM      9  H   UNL     1      17.004   8.331   0.653  0.00  0.00    +0.000 HD
ATOM     10  H   UNL     1      17.112   8.178   4.961  0.00  0.00    +0.000 HD
ENDROOT
BRANCH   4  11
ATOM     11  C   UNL     1      18.111   6.977   2.735  0.00  0.00    +0.000 C 
ATOM     12  H   UNL     1      18.065   6.405   3.670  0.00  0.00    +0.000 HD
ATOM     13  H   UNL     1      17.813   6.301   1.925  0.00  0.00    +0.000 HD
BRANCH  11  15
ATOM     14  O   UNL     1      20.191   8.138   3.231  0.00  0.00    +0.000 OA
ATOM     15  C   UNL     1      19.551   7.390   2.504  0.00  0.00    +0.000 C 
BRANCH  15  16
ATOM     16  O   UNL     1      20.015   6.796   1.363  0.00  0.00    +0.000 OA
BRANCH  16  17
ATOM     17  C   UNL     1      20.212   7.670   0.248  0.00  0.00    +0.000 C 
ATOM     18  H   UNL     1      21.128   7.401  -0.287  0.00  0.00    +0.000 HD
ATOM     19  H   UNL     1      20.253   8.710   0.585  0.00  0.00    +0.000 HD
ATOM     20  H   UNL     1      19.362   7.554  -0.430  0.00  0.00    +0.000 HD
ENDBRANCH  16  17
ENDBRANCH  15  16
ENDBRANCH  11  15
ENDBRANCH   4  11
BRANCH   1  21
ATOM     21  C   UNL     1      14.448  11.431   2.986  0.00  0.00    +0.000 C 
BRANCH  21  22
ATOM     22  C   UNL     1      13.276  11.195   2.009  0.00  0.00    +0.000 C 
ATOM     23  H   UNL     1      13.331  11.879   1.154  0.00  0.00    +0.000 HD
ATOM     24  H   UNL     1      13.268  10.179   1.603  0.00  0.00    +0.000 HD
ATOM     25  H   UNL     1      12.311  11.360   2.504  0.00  0.00    +0.000 HD
ENDBRANCH  21  22
BRANCH  21  26
ATOM     26  C   UNL     1      15.183  12.731   2.592  0.00  0.00    +0.000 C 
ATOM     27  H   UNL     1      14.877  13.587   3.203  0.00  0.00    +0.000 HD
ATOM     28  H   UNL     1      16.267  12.624   2.715  0.00  0.00    +0.000 HD
ATOM     29  H   UNL     1      14.991  12.991   1.544  0.00  0.00    +0.000 HD
ENDBRANCH  21  26
BRANCH  21  30
ATOM     30  C   UNL     1      13.837  11.661   4.387  0.00  0.00    +0.000 C 
ATOM     31  H   UNL     1      13.486  10.715   4.818  0.00  0.00    +0.000 HD
ATOM     32  H   UNL     1      14.571  12.071   5.092  0.00  0.00    +0.000 HD
ATOM     33  H   UNL     1      12.970  12.330   4.353  0.00  0.00    +0.000 HD
ENDBRANCH  21  30
ENDBRANCH   1  21
TORSDOF 8
ENDMDL
MODEL 6
REMARK VINA RESULT:    -4.853     21.449     22.828
REMARK INTER + INTRA:          -7.065
REMARK INTER:                  -6.534
REMARK INTRA:                  -0.531
REMARK UNBOUND:                -0.509
REMARK  Name = 605629
REMARK  8 active torsions:
REMARK  status: ('A' for Active; 'I' for Inactive)
REMARK    1  A    between atoms: O_1  and  C_14
REMARK    2  A    between atoms: O_1  and  C_15
REMARK    3  A    between atoms: C_3  and  C_4
REMARK    4  A    between atoms: C_3  and  C_5
REMARK    5  A    between atoms: C_3  and  C_6
REMARK    6  A    between atoms: C_3  and  C_7
REMARK    7  A    between atoms: C_10  and  C_13
REMARK    8  A    between atoms: C_13  and  C_14
REMARK                            x       y       z     vdW  Elec       q    Type
REMARK                         _______ _______ _______ _____ _____    ______ ____
ROOT
ATOM      1  C   UNL     1      14.767  10.900   4.532  0.00  0.00    +0.000 A 
ATOM      2  C   UNL     1      14.254  11.333   3.335  0.00  0.00    +0.000 A 
ATOM      3  C   UNL     1      15.732   9.929   4.633  0.00  0.00    +0.000 A 
ATOM      4  C   UNL     1      15.722   9.770   2.222  0.00  0.00    +0.000 A 
ATOM      5  C   UNL     1      14.740  10.759   2.161  0.00  0.00    +0.000 A 
ATOM      6  C   UNL     1      16.218   9.356   3.458  0.00  0.00    +0.000 A 
ATOM      7  H   UNL     1      13.491  12.100   3.263  0.00  0.00    +0.000 HD
ATOM      8  H   UNL     1      16.152   9.571   5.564  0.00  0.00    +0.000 HD
ATOM      9  H   UNL     1      14.344  11.089   1.203  0.00  0.00    +0.000 HD
ATOM     10  H   UNL     1      16.981   8.585   3.520  0.00  0.00    +0.000 HD
ENDROOT
BRANCH   4  11
ATOM     11  C   UNL     1      16.241   9.156   0.966  0.00  0.00    +0.000 C 
ATOM     12  H   UNL     1      16.360   8.074   1.103  0.00  0.00    +0.000 HD
ATOM     13  H   UNL     1      15.515   9.303   0.157  0.00  0.00    +0.000 HD
BRANCH  11  15
ATOM     14  O   UNL     1      17.745  10.867   0.114  0.00  0.00    +0.000 OA
ATOM     15  C   UNL     1      17.573   9.726   0.519  0.00  0.00    +0.000 C 
BRANCH  15  16
ATOM     16  O   UNL     1      18.540   8.768   0.644  0.00  0.00    +0.000 OA
BRANCH  16  17
ATOM     17  C   UNL     1      19.575   9.055   1.590  0.00  0.00    +0.000 C 
ATOM     18  H   UNL     1      20.223   9.851   1.212  0.00  0.00    +0.000 HD
ATOM     19  H   UNL     1      20.155   8.152   1.803  0.00  0.00    +0.000 HD
ATOM     20  H   UNL     1      19.104   9.396   2.516  0.00  0.00    +0.000 HD
ENDBRANCH  16  17
ENDBRANCH  15  16
ENDBRANCH  11  15
ENDBRANCH   4  11
BRANCH   1  21
ATOM     21  C   UNL     1      14.231  11.533   5.827  0.00  0.00    +0.000 C 
BRANCH  21  22
ATOM     22  C   UNL     1      15.002  12.836   6.127  0.00  0.00    +0.000 C 
ATOM     23  H   UNL     1      15.941  12.877   5.562  0.00  0.00    +0.000 HD
ATOM     24  H   UNL     1      14.431  13.731   5.860  0.00  0.00    +0.000 HD
ATOM     25  H   UNL     1      15.252  12.911   7.192  0.00  0.00    +0.000 HD
ENDBRANCH  21  22
BRANCH  21  26
ATOM     26  C   UNL     1      14.421  10.549   7.003  0.00  0.00    +0.000 C 
ATOM     27  H   UNL     1      13.469  10.218   7.430  0.00  0.00    +0.000 HD
ATOM     28  H   UNL     1      14.955   9.647   6.680  0.00  0.00    +0.000 HD
ATOM     29  H   UNL     1      15.003  11.008   7.811  0.00  0.00    +0.000 HD
ENDBRANCH  21  26
BRANCH  21  30
ATOM     30  C   UNL     1      12.729  11.892   5.774  0.00  0.00    +0.000 C 
ATOM     31  H   UNL     1      12.145  11.221   6.416  0.00  0.00    +0.000 HD
ATOM     32  H   UNL     1      12.538  12.911   6.132  0.00  0.00    +0.000 HD
ATOM     33  H   UNL     1      12.318  11.792   4.763  0.00  0.00    +0.000 HD
ENDBRANCH  21  30
ENDBRANCH   1  21
TORSDOF 8
ENDMDL
MODEL 7
REMARK VINA RESULT:    -4.764     23.104     24.545
REMARK INTER + INTRA:          -6.944
REMARK INTER:                  -6.484
REMARK INTRA:                  -0.460
REMARK UNBOUND:                -0.509
REMARK  Name = 605629
REMARK  8 active torsions:
REMARK  status: ('A' for Active; 'I' for Inactive)
REMARK    1  A    between atoms: O_1  and  C_14
REMARK    2  A    between atoms: O_1  and  C_15
REMARK    3  A    between atoms: C_3  and  C_4
REMARK    4  A    between atoms: C_3  and  C_5
REMARK    5  A    between atoms: C_3  and  C_6
REMARK    6  A    between atoms: C_3  and  C_7
REMARK    7  A    between atoms: C_10  and  C_13
REMARK    8  A    between atoms: C_13  and  C_14
REMARK                            x       y       z     vdW  Elec       q    Type
REMARK                         _______ _______ _______ _____ _____    ______ ____
ROOT
ATOM      1  C   UNL     1       5.908  13.187   3.691  0.00  0.00    +0.000 A 
ATOM      2  C   UNL     1       6.758  13.948   2.929  0.00  0.00    +0.000 A 
ATOM      3  C   UNL     1       5.264  12.071   3.217  0.00  0.00    +0.000 A 
ATOM      4  C   UNL     1       6.343  12.441   1.087  0.00  0.00    +0.000 A 
ATOM      5  C   UNL     1       6.980  13.569   1.605  0.00  0.00    +0.000 A 
ATOM      6  C   UNL     1       5.486  11.692   1.893  0.00  0.00    +0.000 A 
ATOM      7  H   UNL     1       7.263  14.829   3.310  0.00  0.00    +0.000 HD
ATOM      8  H   UNL     1       4.590  11.454   3.797  0.00  0.00    +0.000 HD
ATOM      9  H   UNL     1       7.648  14.162   0.986  0.00  0.00    +0.000 HD
ATOM     10  H   UNL     1       4.983  10.812   1.501  0.00  0.00    +0.000 HD
ENDROOT
BRANCH   4  11
ATOM     11  C   UNL     1       6.580  12.036  -0.328  0.00  0.00    +0.000 C 
ATOM     12  H   UNL     1       7.503  11.448  -0.398  0.00  0.00    +0.000 HD
ATOM     13  H   UNL     1       5.759  11.393  -0.670  0.00  0.00    +0.000 HD
BRANCH  11  15
ATOM     14  O   UNL     1       5.782  13.979  -1.556  0.00  0.00    +0.000 OA
ATOM     15  C   UNL     1       6.693  13.209  -1.282  0.00  0.00    +0.000 C 
BRANCH  15  16
ATOM     16  O   UNL     1       7.965  13.267  -1.779  0.00  0.00    +0.000 OA
BRANCH  16  17
ATOM     17  C   UNL     1       8.553  12.007  -2.118  0.00  0.00    +0.000 C 
ATOM     18  H   UNL     1       7.992  11.191  -1.654  0.00  0.00    +0.000 HD
ATOM     19  H   UNL     1       9.601  11.983  -1.805  0.00  0.00    +0.000 HD
ATOM     20  H   UNL     1       8.508  11.892  -3.204  0.00  0.00    +0.000 HD
ENDBRANCH  16  17
ENDBRANCH  15  16
ENDBRANCH  11  15
ENDBRANCH   4  11
BRANCH   1  21
ATOM     21  C   UNL     1       5.663  13.605   5.150  0.00  0.00    +0.000 C 
BRANCH  21  22
ATOM     22  C   UNL     1       6.286  12.560   6.102  0.00  0.00    +0.000 C 
ATOM     23  H   UNL     1       6.428  12.977   7.106  0.00  0.00    +0.000 HD
ATOM     24  H   UNL     1       5.661  11.669   6.212  0.00  0.00    +0.000 HD
ATOM     25  H   UNL     1       7.267  12.231   5.737  0.00  0.00    +0.000 HD
ENDBRANCH  21  22
BRANCH  21  26
ATOM     26  C   UNL     1       4.144  13.692   5.417  0.00  0.00    +0.000 C 
ATOM     27  H   UNL     1       3.589  14.078   4.556  0.00  0.00    +0.000 HD
ATOM     28  H   UNL     1       3.727  12.704   5.647  0.00  0.00    +0.000 HD
ATOM     29  H   UNL     1       3.930  14.350   6.268  0.00  0.00    +0.000 HD
ENDBRANCH  21  26
BRANCH  21  30
ATOM     30  C   UNL     1       6.269  14.978   5.518  0.00  0.00    +0.000 C 
ATOM     31  H   UNL     1       5.750  15.786   4.989  0.00  0.00    +0.000 HD
ATOM     32  H   UNL     1       6.174  15.195   6.589  0.00  0.00    +0.000 HD
ATOM     33  H   UNL     1       7.326  15.049   5.237  0.00  0.00    +0.000 HD
ENDBRANCH  21  30
ENDBRANCH   1  21
TORSDOF 8
ENDMDL
MODEL 8
REMARK VINA RESULT:    -4.759     15.875     18.172
REMARK INTER + INTRA:          -6.937
REMARK INTER:                  -6.418
REMARK INTRA:                  -0.519
REMARK UNBOUND:                -0.509
REMARK  Name = 605629
REMARK  8 active torsions:
REMARK  status: ('A' for Active; 'I' for Inactive)
REMARK    1  A    between atoms: O_1  and  C_14
REMARK    2  A    between atoms: O_1  and  C_15
REMARK    3  A    between atoms: C_3  and  C_4
REMARK    4  A    between atoms: C_3  and  C_5
REMARK    5  A    between atoms: C_3  and  C_6
REMARK    6  A    between atoms: C_3  and  C_7
REMARK    7  A    between atoms: C_10  and  C_13
REMARK    8  A    between atoms: C_13  and  C_14
REMARK                            x       y       z     vdW  Elec       q    Type
REMARK                         _______ _______ _______ _____ _____    ______ ____
ROOT
ATOM      1  C   UNL     1      -7.590  -5.972  -9.090  0.00  0.00    +0.000 A 
ATOM      2  C   UNL     1      -6.634  -5.843  -8.114  0.00  0.00    +0.000 A 
ATOM      3  C   UNL     1      -7.313  -6.399 -10.365  0.00  0.00    +0.000 A 
ATOM      4  C   UNL     1      -4.994  -6.601  -9.718  0.00  0.00    +0.000 A 
ATOM      5  C   UNL     1      -5.314  -6.163  -8.432  0.00  0.00    +0.000 A 
ATOM      6  C   UNL     1      -5.994  -6.720 -10.684  0.00  0.00    +0.000 A 
ATOM      7  H   UNL     1      -6.859  -5.504  -7.108  0.00  0.00    +0.000 HD
ATOM      8  H   UNL     1      -8.048  -6.508 -11.152  0.00  0.00    +0.000 HD
ATOM      9  H   UNL     1      -4.544  -6.065  -7.672  0.00  0.00    +0.000 HD
ATOM     10  H   UNL     1      -5.757  -7.057 -11.688  0.00  0.00    +0.000 HD
ENDROOT
BRANCH   4  11
ATOM     11  C   UNL     1      -3.583  -6.943 -10.059  0.00  0.00    +0.000 C 
ATOM     12  H   UNL     1      -3.361  -6.622 -11.084  0.00  0.00    +0.000 HD
ATOM     13  H   UNL     1      -2.902  -6.400  -9.393  0.00  0.00    +0.000 HD
BRANCH  11  15
ATOM     14  O   UNL     1      -3.363  -9.227 -10.867  0.00  0.00    +0.000 OA
ATOM     15  C   UNL     1      -3.276  -8.423  -9.949  0.00  0.00    +0.000 C 
BRANCH  15  16
ATOM     16  O   UNL     1      -2.888  -8.711  -8.670  0.00  0.00    +0.000 OA
BRANCH  16  17
ATOM     17  C   UNL     1      -3.728  -9.627  -7.961  0.00  0.00    +0.000 C 
ATOM     18  H   UNL     1      -4.750  -9.239  -7.906  0.00  0.00    +0.000 HD
ATOM     19  H   UNL     1      -3.329  -9.808  -6.958  0.00  0.00    +0.000 HD
ATOM     20  H   UNL     1      -3.741 -10.573  -8.510  0.00  0.00    +0.000 HD
ENDBRANCH  16  17
ENDBRANCH  15  16
ENDBRANCH  11  15
ENDBRANCH   4  11
BRANCH   1  21
ATOM     21  C   UNL     1      -9.044  -5.618  -8.739  0.00  0.00    +0.000 C 
BRANCH  21  22
ATOM     22  C   UNL     1      -9.065  -4.531  -7.642  0.00  0.00    +0.000 C 
ATOM     23  H   UNL     1     -10.054  -4.063  -7.569  0.00  0.00    +0.000 HD
ATOM     24  H   UNL     1      -8.829  -4.932  -6.651  0.00  0.00    +0.000 HD
ATOM     25  H   UNL     1      -8.337  -3.739  -7.858  0.00  0.00    +0.000 HD
ENDBRANCH  21  22
BRANCH  21  26
ATOM     26  C   UNL     1      -9.773  -6.877  -8.219  0.00  0.00    +0.000 C 
ATOM     27  H   UNL     1     -10.569  -7.208  -8.895  0.00  0.00    +0.000 HD
ATOM     28  H   UNL     1      -9.079  -7.718  -8.111  0.00  0.00    +0.000 HD
ATOM     29  H   UNL     1     -10.229  -6.693  -7.240  0.00  0.00    +0.000 HD
ENDBRANCH  21  26
BRANCH  21  30
ATOM     30  C   UNL     1      -9.863  -5.078  -9.933  0.00  0.00    +0.000 C 
ATOM     31  H   UNL     1     -10.726  -5.725 -10.137  0.00  0.00    +0.000 HD
ATOM     32  H   UNL     1     -10.264  -4.076  -9.736  0.00  0.00    +0.000 HD
ATOM     33  H   UNL     1      -9.272  -5.046 -10.855  0.00  0.00    +0.000 HD
ENDBRANCH  21  30
ENDBRANCH   1  21
TORSDOF 8
ENDMDL
MODEL 9
REMARK VINA RESULT:    -4.736     24.118     26.074
REMARK INTER + INTRA:          -6.906
REMARK INTER:                  -6.495
REMARK INTRA:                  -0.411
REMARK UNBOUND:                -0.509
REMARK  Name = 605629
REMARK  8 active torsions:
REMARK  status: ('A' for Active; 'I' for Inactive)
REMARK    1  A    between atoms: O_1  and  C_14
REMARK    2  A    between atoms: O_1  and  C_15
REMARK    3  A    between atoms: C_3  and  C_4
REMARK    4  A    between atoms: C_3  and  C_5
REMARK    5  A    between atoms: C_3  and  C_6
REMARK    6  A    between atoms: C_3  and  C_7
REMARK    7  A    between atoms: C_10  and  C_13
REMARK    8  A    between atoms: C_13  and  C_14
REMARK                            x       y       z     vdW  Elec       q    Type
REMARK                         _______ _______ _______ _____ _____    ______ ____
ROOT
ATOM      1  C   UNL     1       7.956  15.164  -8.348  0.00  0.00    +0.000 A 
ATOM      2  C   UNL     1       9.227  14.693  -8.564  0.00  0.00    +0.000 A 
ATOM      3  C   UNL     1       7.124  14.672  -7.374  0.00  0.00    +0.000 A 
ATOM      4  C   UNL     1       8.882  13.136  -6.749  0.00  0.00    +0.000 A 
ATOM      5  C   UNL     1       9.698  13.662  -7.751  0.00  0.00    +0.000 A 
ATOM      6  C   UNL     1       7.595  13.641  -6.561  0.00  0.00    +0.000 A 
ATOM      7  H   UNL     1       9.879  15.086  -9.337  0.00  0.00    +0.000 HD
ATOM      8  H   UNL     1       6.119  15.025  -7.184  0.00  0.00    +0.000 HD
ATOM      9  H   UNL     1      10.701  13.275  -7.910  0.00  0.00    +0.000 HD
ATOM     10  H   UNL     1       6.949  13.238  -5.786  0.00  0.00    +0.000 HD
ENDROOT
BRANCH   4  11
ATOM     11  C   UNL     1       9.385  12.033  -5.881  0.00  0.00    +0.000 C 
ATOM     12  H   UNL     1       8.685  11.189  -5.909  0.00  0.00    +0.000 HD
ATOM     13  H   UNL     1      10.346  11.671  -6.266  0.00  0.00    +0.000 HD
BRANCH  11  15
ATOM     14  O   UNL     1      10.554  13.033  -3.996  0.00  0.00    +0.000 OA
ATOM     15  C   UNL     1       9.576  12.442  -4.434  0.00  0.00    +0.000 C 
BRANCH  15  16
ATOM     16  O   UNL     1       8.488  12.050  -3.705  0.00  0.00    +0.000 OA
BRANCH  16  17
ATOM     17  C   UNL     1       8.751  11.703  -2.342  0.00  0.00    +0.000 C 
ATOM     18  H   UNL     1       8.940  12.605  -1.751  0.00  0.00    +0.000 HD
ATOM     19  H   UNL     1       9.602  11.017  -2.283  0.00  0.00    +0.000 HD
ATOM     20  H   UNL     1       7.867  11.200  -1.941  0.00  0.00    +0.000 HD
ENDBRANCH  16  17
ENDBRANCH  15  16
ENDBRANCH  11  15
ENDBRANCH   4  11
BRANCH   1  21
ATOM     21  C   UNL     1       7.437  16.300  -9.244  0.00  0.00    +0.000 C 
BRANCH  21  22
ATOM     22  C   UNL     1       7.940  17.658  -8.707  0.00  0.00    +0.000 C 
ATOM     23  H   UNL     1       7.271  18.047  -7.931  0.00  0.00    +0.000 HD
ATOM     24  H   UNL     1       8.938  17.587  -8.261  0.00  0.00    +0.000 HD
ATOM     25  H   UNL     1       7.991  18.405  -9.509  0.00  0.00    +0.000 HD
ENDBRANCH  21  22
BRANCH  21  26
ATOM     26  C   UNL     1       5.892  16.297  -9.245  0.00  0.00    +0.000 C 
ATOM     27  H   UNL     1       5.472  17.069  -8.591  0.00  0.00    +0.000 HD
ATOM     28  H   UNL     1       5.497  16.482 -10.250  0.00  0.00    +0.000 HD
ATOM     29  H   UNL     1       5.500  15.330  -8.906  0.00  0.00    +0.000 HD
ENDBRANCH  21  26
BRANCH  21  30
ATOM     30  C   UNL     1       7.892  16.194 -10.717  0.00  0.00    +0.000 C 
ATOM     31  H   UNL     1       8.980  16.070 -10.780  0.00  0.00    +0.000 HD
ATOM     32  H   UNL     1       7.450  15.325 -11.221  0.00  0.00    +0.000 HD
ATOM     33  H   UNL     1       7.647  17.095 -11.290  0.00  0.00    +0.000 HD
ENDBRANCH  21  30
ENDBRANCH   1  21
TORSDOF 8
ENDMDL
MODEL 10
REMARK VINA RESULT:    -4.719     21.630     22.591
REMARK INTER + INTRA:          -6.884
REMARK INTER:                  -6.375
REMARK INTRA:                  -0.509
REMARK UNBOUND:                -0.509
REMARK  Name = 605629
REMARK  8 active torsions:
REMARK  status: ('A' for Active; 'I' for Inactive)
REMARK    1  A    between atoms: O_1  and  C_14
REMARK    2  A    between atoms: O_1  and  C_15
REMARK    3  A    between atoms: C_3  and  C_4
REMARK    4  A    between atoms: C_3  and  C_5
REMARK    5  A    between atoms: C_3  and  C_6
REMARK    6  A    between atoms: C_3  and  C_7
REMARK    7  A    between atoms: C_10  and  C_13
REMARK    8  A    between atoms: C_13  and  C_14
REMARK                            x       y       z     vdW  Elec       q    Type
REMARK                         _______ _______ _______ _____ _____    ______ ____
ROOT
ATOM      1  C   UNL     1      15.590  10.022   5.275  0.00  0.00    +0.000 A 
ATOM      2  C   UNL     1      16.432   9.038   4.820  0.00  0.00    +0.000 A 
ATOM      3  C   UNL     1      14.878  10.850   4.443  0.00  0.00    +0.000 A 
ATOM      4  C   UNL     1      15.863   9.692   2.565  0.00  0.00    +0.000 A 
ATOM      5  C   UNL     1      16.570   8.870   3.442  0.00  0.00    +0.000 A 
ATOM      6  C   UNL     1      15.017  10.682   3.065  0.00  0.00    +0.000 A 
ATOM      7  H   UNL     1      16.992   8.388   5.483  0.00  0.00    +0.000 HD
ATOM      8  H   UNL     1      14.209  11.633   4.776  0.00  0.00    +0.000 HD
ATOM      9  H   UNL     1      17.234   8.097   3.064  0.00  0.00    +0.000 HD
ATOM     10  H   UNL     1      14.462  11.330   2.392  0.00  0.00    +0.000 HD
ENDROOT
BRANCH   4  11
ATOM     11  C   UNL     1      16.011   9.513   1.092  0.00  0.00    +0.000 C 
ATOM     12  H   UNL     1      15.900   8.453   0.833  0.00  0.00    +0.000 HD
ATOM     13  H   UNL     1      15.215  10.060   0.572  0.00  0.00    +0.000 HD
BRANCH  11  15
ATOM     14  O   UNL     1      17.633  11.164   0.340  0.00  0.00    +0.000 OA
ATOM     15  C   UNL     1      17.345   9.994   0.556  0.00  0.00    +0.000 C 
BRANCH  15  16
ATOM     16  O   UNL     1      18.167   8.920   0.358  0.00  0.00    +0.000 OA
BRANCH  16  17
ATOM     17  C   UNL     1      19.431   8.978   1.028  0.00  0.00    +0.000 C 
ATOM     18  H   UNL     1      19.801   7.968   1.227  0.00  0.00    +0.000 HD
ATOM     19  H   UNL     1      19.340   9.547   1.958  0.00  0.00    +0.000 HD
ATOM     20  H   UNL     1      20.141   9.489   0.372  0.00  0.00    +0.000 HD
ENDBRANCH  16  17
ENDBRANCH  15  16
ENDBRANCH  11  15
ENDBRANCH   4  11
BRANCH   1  21
ATOM     21  C   UNL     1      15.438  10.208   6.793  0.00  0.00    +0.000 C 
BRANCH  21  22
ATOM     22  C   UNL     1      14.024  10.740   7.113  0.00  0.00    +0.000 C 
ATOM     23  H   UNL     1      14.074  11.662   7.705  0.00  0.00    +0.000 HD
ATOM     24  H   UNL     1      13.451  10.974   6.209  0.00  0.00    +0.000 HD
ATOM     25  H   UNL     1      13.447  10.006   7.688  0.00  0.00    +0.000 HD
ENDBRANCH  21  22
BRANCH  21  26
ATOM     26  C   UNL     1      16.488  11.221   7.301  0.00  0.00    +0.000 C 
ATOM     27  H   UNL     1      16.441  11.365   8.385  0.00  0.00    +0.000 HD
ATOM     28  H   UNL     1      17.505  10.884   7.069  0.00  0.00    +0.000 HD
ATOM     29  H   UNL     1      16.347  12.202   6.832  0.00  0.00    +0.000 HD
ENDBRANCH  21  26
BRANCH  21  30
ATOM     30  C   UNL     1      15.631   8.907   7.605  0.00  0.00    +0.000 C 
ATOM     31  H   UNL     1      14.745   8.695   8.217  0.00  0.00    +0.000 HD
ATOM     32  H   UNL     1      15.777   8.036   6.955  0.00  0.00    +0.000 HD
ATOM     33  H   UNL     1      16.478   8.976   8.297  0.00  0.00    +0.000 HD
ENDBRANCH  21  30
ENDBRANCH   1  21
TORSDOF 8
ENDMDL
