MODEL 1
REMARK VINA RESULT:    -4.500      0.000      0.000
REMARK INTER + INTRA:          -6.823
REMARK INTER:                  -6.510
REMARK INTRA:                  -0.313
REMARK UNBOUND:                -0.219
REMARK  Name = 8158
REMARK  9 active torsions:
REMARK  status: ('A' for Active; 'I' for Inactive)
REMARK    1  A    between atoms: O_1  and  C_11
REMARK    2  A    between atoms: C_3  and  C_4
REMARK    3  A    between atoms: C_3  and  C_5
REMARK    4  A    between atoms: C_4  and  C_6
REMARK    5  A    between atoms: C_5  and  C_7
REMARK    6  A    between atoms: C_6  and  C_8
REMARK    7  A    between atoms: C_7  and  C_9
REMARK    8  A    between atoms: C_8  and  C_10
REMARK    9  A    between atoms: C_9  and  C_11
REMARK                            x       y       z     vdW  Elec       q    Type
REMARK                         _______ _______ _______ _____ _____    ______ ____
ROOT
ATOM      1  C   UNL     1      13.189  -9.822  -2.981  0.00  0.00    +0.000 C 
ATOM      2  H   UNL     1      13.521 -10.557  -2.237  0.00  0.00    +0.000 HD
ATOM      3  H   UNL     1      13.582  -8.849  -2.661  0.00  0.00    +0.000 HD
ENDROOT
BRANCH   1   4
ATOM      4  C   UNL     1      13.790 -10.182  -4.344  0.00  0.00    +0.000 C 
ATOM      5  H   UNL     1      14.468 -11.037  -4.223  0.00  0.00    +0.000 HD
ATOM      6  H   UNL     1      12.985 -10.510  -5.016  0.00  0.00    +0.000 HD
BRANCH   4   7
ATOM      7  C   UNL     1      14.548  -9.026  -5.000  0.00  0.00    +0.000 C 
ATOM      8  H   UNL     1      14.491  -8.142  -4.352  0.00  0.00    +0.000 HD
ATOM      9  H   UNL     1      15.609  -9.292  -5.079  0.00  0.00    +0.000 HD
BRANCH   7  10
ATOM     10  C   UNL     1      14.016  -8.664  -6.389  0.00  0.00    +0.000 C 
ATOM     11  H   UNL     1      14.544  -9.258  -7.146  0.00  0.00    +0.000 HD
ATOM     12  H   UNL     1      14.237  -7.612  -6.601  0.00  0.00    +0.000 HD
BRANCH  10  13
ATOM     13  C   UNL     1      12.519  -8.890  -6.545  0.00  0.00    +0.000 C 
ATOM     14  H   UNL     1      11.952  -8.171  -5.947  0.00  0.00    +0.000 HD
ATOM     15  H   UNL     1      12.250  -9.898  -6.214  0.00  0.00    +0.000 HD
ATOM     16  H   UNL     1      12.215  -8.782  -7.591  0.00  0.00    +0.000 HD
ENDBRANCH  10  13
ENDBRANCH   7  10
ENDBRANCH   4   7
ENDBRANCH   1   4
BRANCH   1  17
ATOM     17  C   UNL     1      11.659  -9.766  -2.985  0.00  0.00    +0.000 C 
ATOM     18  H   UNL     1      11.319  -9.198  -3.860  0.00  0.00    +0.000 HD
ATOM     19  H   UNL     1      11.262 -10.783  -3.093  0.00  0.00    +0.000 HD
BRANCH  17  20
ATOM     20  C   UNL     1      11.067  -9.132  -1.719  0.00  0.00    +0.000 C 
ATOM     21  H   UNL     1      10.774  -8.098  -1.946  0.00  0.00    +0.000 HD
ATOM     22  H   UNL     1      11.859  -9.062  -0.961  0.00  0.00    +0.000 HD
BRANCH  20  23
ATOM     23  C   UNL     1       9.872  -9.870  -1.122  0.00  0.00    +0.000 C 
ATOM     24  H   UNL     1      10.223 -10.610  -0.395  0.00  0.00    +0.000 HD
ATOM     25  H   UNL     1       9.326 -10.386  -1.918  0.00  0.00    +0.000 HD
BRANCH  23  27
ATOM     26  O   UNL     1       8.741  -7.773  -0.727  0.00  0.00    +0.000 OA
ATOM     27  C   UNL     1       8.914  -8.944  -0.417  0.00  0.00    +0.000 C 
BRANCH  27  28
ATOM     28  O   UNL     1       8.263  -9.549   0.610  0.00  0.00    +0.000 OA
ATOM     29  H   UNL     1       7.450  -9.062   0.865  0.00  0.00    +0.000 HD
ENDBRANCH  27  28
ENDBRANCH  23  27
ENDBRANCH  20  23
ENDBRANCH  17  20
ENDBRANCH   1  17
TORSDOF 9
ENDMDL
MODEL 2
REMARK VINA RESULT:    -4.464      6.817      8.274
REMARK INTER + INTRA:          -6.770
REMARK INTER:                  -6.305
REMARK INTRA:                  -0.465
REMARK UNBOUND:                -0.219
REMARK  Name = 8158
REMARK  9 active torsions:
REMARK  status: ('A' for Active; 'I' for Inactive)
REMARK    1  A    between atoms: O_1  and  C_11
REMARK    2  A    between atoms: C_3  and  C_4
REMARK    3  A    between atoms: C_3  and  C_5
REMARK    4  A    between atoms: C_4  and  C_6
REMARK    5  A    between atoms: C_5  and  C_7
REMARK    6  A    between atoms: C_6  and  C_8
REMARK    7  A    between atoms: C_7  and  C_9
REMARK    8  A    between atoms: C_8  and  C_10
REMARK    9  A    between atoms: C_9  and  C_11
REMARK                            x       y       z     vdW  Elec       q    Type
REMARK                         _______ _______ _______ _____ _____    ______ ____
ROOT
ATOM      1  C   UNL     1       9.189  -1.843   0.729  0.00  0.00    +0.000 C 
ATOM      2  H   UNL     1       9.274  -2.677   1.437  0.00  0.00    +0.000 HD
ATOM      3  H   UNL     1       9.551  -0.948   1.250  0.00  0.00    +0.000 HD
ENDROOT
BRANCH   1   4
ATOM      4  C   UNL     1      10.090  -2.118  -0.480  0.00  0.00    +0.000 C 
ATOM      5  H   UNL     1      11.063  -1.637  -0.318  0.00  0.00    +0.000 HD
ATOM      6  H   UNL     1      10.278  -3.197  -0.551  0.00  0.00    +0.000 HD
BRANCH   4   7
ATOM      7  C   UNL     1       9.499  -1.626  -1.804  0.00  0.00    +0.000 C 
ATOM      8  H   UNL     1       8.547  -1.118  -1.608  0.00  0.00    +0.000 HD
ATOM      9  H   UNL     1      10.172  -0.879  -2.242  0.00  0.00    +0.000 HD
BRANCH   7  10
ATOM     10  C   UNL     1       9.268  -2.751  -2.817  0.00  0.00    +0.000 C 
ATOM     11  H   UNL     1       8.750  -2.346  -3.696  0.00  0.00    +0.000 HD
ATOM     12  H   UNL     1       8.606  -3.505  -2.378  0.00  0.00    +0.000 HD
BRANCH  10  13
ATOM     13  C   UNL     1      10.550  -3.431  -3.274  0.00  0.00    +0.000 C 
ATOM     14  H   UNL     1      10.807  -4.263  -2.611  0.00  0.00    +0.000 HD
ATOM     15  H   UNL     1      11.381  -2.719  -3.269  0.00  0.00    +0.000 HD
ATOM     16  H   UNL     1      10.443  -3.823  -4.290  0.00  0.00    +0.000 HD
ENDBRANCH  10  13
ENDBRANCH   7  10
ENDBRANCH   4   7
ENDBRANCH   1   4
BRANCH   1  17
ATOM     17  C   UNL     1       7.717  -1.645   0.359  0.00  0.00    +0.000 C 
ATOM     18  H   UNL     1       7.303  -0.817   0.948  0.00  0.00    +0.000 HD
ATOM     19  H   UNL     1       7.647  -1.350  -0.695  0.00  0.00    +0.000 HD
BRANCH  17  20
ATOM     20  C   UNL     1       6.857  -2.896   0.584  0.00  0.00    +0.000 C 
ATOM     21  H   UNL     1       6.381  -2.825   1.572  0.00  0.00    +0.000 HD
ATOM     22  H   UNL     1       7.518  -3.771   0.630  0.00  0.00    +0.000 HD
BRANCH  20  23
ATOM     23  C   UNL     1       5.780  -3.142  -0.469  0.00  0.00    +0.000 C 
ATOM     24  H   UNL     1       6.071  -3.989  -1.100  0.00  0.00    +0.000 HD
ATOM     25  H   UNL     1       5.674  -2.252  -1.098  0.00  0.00    +0.000 HD
BRANCH  23  27
ATOM     26  O   UNL     1       3.401  -2.871  -0.158  0.00  0.00    +0.000 OA
ATOM     27  C   UNL     1       4.436  -3.454   0.138  0.00  0.00    +0.000 C 
BRANCH  27  28
ATOM     28  O   UNL     1       4.496  -4.451   1.056  0.00  0.00    +0.000 OA
ATOM     29  H   UNL     1       3.605  -4.708   1.376  0.00  0.00    +0.000 HD
ENDBRANCH  27  28
ENDBRANCH  23  27
ENDBRANCH  20  23
ENDBRANCH  17  20
ENDBRANCH   1  17
TORSDOF 9
ENDMDL
MODEL 3
REMARK VINA RESULT:    -4.395     21.665     22.878
REMARK INTER + INTRA:          -6.669
REMARK INTER:                  -6.515
REMARK INTRA:                  -0.154
REMARK UNBOUND:                -0.219
REMARK  Name = 8158
REMARK  9 active torsions:
REMARK  status: ('A' for Active; 'I' for Inactive)
REMARK    1  A    between atoms: O_1  and  C_11
REMARK    2  A    between atoms: C_3  and  C_4
REMARK    3  A    between atoms: C_3  and  C_5
REMARK    4  A    between atoms: C_4  and  C_6
REMARK    5  A    between atoms: C_5  and  C_7
REMARK    6  A    between atoms: C_6  and  C_8
REMARK    7  A    between atoms: C_7  and  C_9
REMARK    8  A    between atoms: C_8  and  C_10
REMARK    9  A    between atoms: C_9  and  C_11
REMARK                            x       y       z     vdW  Elec       q    Type
REMARK                         _______ _______ _______ _____ _____    ______ ____
ROOT
ATOM      1  C   UNL     1       8.109  12.912  -1.264  0.00  0.00    +0.000 C 
ATOM      2  H   UNL     1       7.917  13.843  -1.811  0.00  0.00    +0.000 HD
ATOM      3  H   UNL     1       8.844  13.149  -0.485  0.00  0.00    +0.000 HD
ENDROOT
BRANCH   1   4
ATOM      4  C   UNL     1       6.809  12.444  -0.600  0.00  0.00    +0.000 C 
ATOM      5  H   UNL     1       6.014  12.406  -1.355  0.00  0.00    +0.000 HD
ATOM      6  H   UNL     1       6.943  11.419  -0.230  0.00  0.00    +0.000 HD
BRANCH   4   7
ATOM      7  C   UNL     1       6.361  13.339   0.559  0.00  0.00    +0.000 C 
ATOM      8  H   UNL     1       6.994  14.234   0.590  0.00  0.00    +0.000 HD
ATOM      9  H   UNL     1       5.336  13.682   0.372  0.00  0.00    +0.000 HD
BRANCH   7  10
ATOM     10  C   UNL     1       6.415  12.638   1.919  0.00  0.00    +0.000 C 
ATOM     11  H   UNL     1       6.320  13.386   2.716  0.00  0.00    +0.000 HD
ATOM     12  H   UNL     1       7.395  12.163   2.044  0.00  0.00    +0.000 HD
BRANCH  10  13
ATOM     13  C   UNL     1       5.334  11.583   2.105  0.00  0.00    +0.000 C 
ATOM     14  H   UNL     1       5.672  10.794   2.783  0.00  0.00    +0.000 HD
ATOM     15  H   UNL     1       5.082  11.124   1.144  0.00  0.00    +0.000 HD
ATOM     16  H   UNL     1       4.424  12.027   2.519  0.00  0.00    +0.000 HD
ENDBRANCH  10  13
ENDBRANCH   7  10
ENDBRANCH   4   7
ENDBRANCH   1   4
BRANCH   1  17
ATOM     17  C   UNL     1       8.709  11.880  -2.221  0.00  0.00    +0.000 C 
ATOM     18  H   UNL     1       9.761  11.711  -1.961  0.00  0.00    +0.000 HD
ATOM     19  H   UNL     1       8.193  10.921  -2.087  0.00  0.00    +0.000 HD
BRANCH  17  20
ATOM     20  C   UNL     1       8.620  12.290  -3.697  0.00  0.00    +0.000 C 
ATOM     21  H   UNL     1       8.057  13.231  -3.769  0.00  0.00    +0.000 HD
ATOM     22  H   UNL     1       8.023  11.540  -4.233  0.00  0.00    +0.000 HD
BRANCH  20  23
ATOM     23  C   UNL     1       9.961  12.457  -4.407  0.00  0.00    +0.000 C 
ATOM     24  H   UNL     1      10.639  11.652  -4.104  0.00  0.00    +0.000 HD
ATOM     25  H   UNL     1      10.405  13.418  -4.128  0.00  0.00    +0.000 HD
BRANCH  23  27
ATOM     26  O   UNL     1      10.632  12.929  -6.678  0.00  0.00    +0.000 OA
ATOM     27  C   UNL     1       9.831  12.416  -5.908  0.00  0.00    +0.000 C 
BRANCH  27  28
ATOM     28  O   UNL     1       8.721  11.751  -6.318  0.00  0.00    +0.000 OA
ATOM     29  H   UNL     1       8.789  10.787  -6.150  0.00  0.00    +0.000 HD
ENDBRANCH  27  28
ENDBRANCH  23  27
ENDBRANCH  20  23
ENDBRANCH  17  20
ENDBRANCH   1  17
TORSDOF 9
ENDMDL
MODEL 4
REMARK VINA RESULT:    -4.330     16.218     17.152
REMARK INTER + INTRA:          -6.573
REMARK INTER:                  -5.909
REMARK INTRA:                  -0.664
REMARK UNBOUND:                -0.219
REMARK  Name = 8158
REMARK  9 active torsions:
REMARK  status: ('A' for Active; 'I' for Inactive)
REMARK    1  A    between atoms: O_1  and  C_11
REMARK    2  A    between atoms: C_3  and  C_4
REMARK    3  A    between atoms: C_3  and  C_5
REMARK    4  A    between atoms: C_4  and  C_6
REMARK    5  A    between atoms: C_5  and  C_7
REMARK    6  A    between atoms: C_6  and  C_8
REMARK    7  A    between atoms: C_7  and  C_9
REMARK    8  A    between atoms: C_8  and  C_10
REMARK    9  A    between atoms: C_9  and  C_11
REMARK                            x       y       z     vdW  Elec       q    Type
REMARK                         _______ _______ _______ _____ _____    ______ ____
ROOT
ATOM      1  C   UNL     1      -4.242 -10.208  -9.214  0.00  0.00    +0.000 C 
ATOM      2  H   UNL     1      -5.325 -10.051  -9.279  0.00  0.00    +0.000 HD
ATOM      3  H   UNL     1      -4.047 -11.224  -9.578  0.00  0.00    +0.000 HD
ENDROOT
BRANCH   1   4
ATOM      4  C   UNL     1      -3.533  -9.204 -10.130  0.00  0.00    +0.000 C 
ATOM      5  H   UNL     1      -2.751  -9.725 -10.696  0.00  0.00    +0.000 HD
ATOM      6  H   UNL     1      -4.252  -8.819 -10.866  0.00  0.00    +0.000 HD
BRANCH   4   7
ATOM      7  C   UNL     1      -2.910  -8.026  -9.376  0.00  0.00    +0.000 C 
ATOM      8  H   UNL     1      -3.014  -8.192  -8.297  0.00  0.00    +0.000 HD
ATOM      9  H   UNL     1      -1.835  -7.992  -9.589  0.00  0.00    +0.000 HD
BRANCH   7  10
ATOM     10  C   UNL     1      -3.538  -6.677  -9.739  0.00  0.00    +0.000 C 
ATOM     11  H   UNL     1      -3.503  -6.542 -10.828  0.00  0.00    +0.000 HD
ATOM     12  H   UNL     1      -2.941  -5.869  -9.301  0.00  0.00    +0.000 HD
BRANCH  10  13
ATOM     13  C   UNL     1      -4.978  -6.529  -9.272  0.00  0.00    +0.000 C 
ATOM     14  H   UNL     1      -5.035  -6.525  -8.180  0.00  0.00    +0.000 HD
ATOM     15  H   UNL     1      -5.585  -7.361  -9.644  0.00  0.00    +0.000 HD
ATOM     16  H   UNL     1      -5.414  -5.597  -9.642  0.00  0.00    +0.000 HD
ENDBRANCH  10  13
ENDBRANCH   7  10
ENDBRANCH   4   7
ENDBRANCH   1   4
BRANCH   1  17
ATOM     17  C   UNL     1      -3.806 -10.109  -7.750  0.00  0.00    +0.000 C 
ATOM     18  H   UNL     1      -3.055 -10.880  -7.541  0.00  0.00    +0.000 HD
ATOM     19  H   UNL     1      -3.320  -9.140  -7.584  0.00  0.00    +0.000 HD
BRANCH  17  20
ATOM     20  C   UNL     1      -4.965 -10.261  -6.756  0.00  0.00    +0.000 C 
ATOM     21  H   UNL     1      -4.575 -10.134  -5.736  0.00  0.00    +0.000 HD
ATOM     22  H   UNL     1      -5.338 -11.292  -6.810  0.00  0.00    +0.000 HD
BRANCH  20  23
ATOM     23  C   UNL     1      -6.131  -9.299  -6.966  0.00  0.00    +0.000 C 
ATOM     24  H   UNL     1      -7.065  -9.865  -7.047  0.00  0.00    +0.000 HD
ATOM     25  H   UNL     1      -5.977  -8.735  -7.892  0.00  0.00    +0.000 HD
BRANCH  23  27
ATOM     26  O   UNL     1      -6.775  -7.201  -5.957  0.00  0.00    +0.000 OA
ATOM     27  C   UNL     1      -6.281  -8.315  -5.834  0.00  0.00    +0.000 C 
BRANCH  27  28
ATOM     28  O   UNL     1      -5.802  -8.794  -4.658  0.00  0.00    +0.000 OA
ATOM     29  H   UNL     1      -5.411  -9.687  -4.759  0.00  0.00    +0.000 HD
ENDBRANCH  27  28
ENDBRANCH  23  27
ENDBRANCH  20  23
ENDBRANCH  17  20
ENDBRANCH   1  17
TORSDOF 9
ENDMDL
MODEL 5
REMARK VINA RESULT:    -4.264      3.598      6.169
REMARK INTER + INTRA:          -6.476
REMARK INTER:                  -6.071
REMARK INTRA:                  -0.405
REMARK UNBOUND:                -0.219
REMARK  Name = 8158
REMARK  9 active torsions:
REMARK  status: ('A' for Active; 'I' for Inactive)
REMARK    1  A    between atoms: O_1  and  C_11
REMARK    2  A    between atoms: C_3  and  C_4
REMARK    3  A    between atoms: C_3  and  C_5
REMARK    4  A    between atoms: C_4  and  C_6
REMARK    5  A    between atoms: C_5  and  C_7
REMARK    6  A    between atoms: C_6  and  C_8
REMARK    7  A    between atoms: C_7  and  C_9
REMARK    8  A    between atoms: C_8  and  C_10
REMARK    9  A    between atoms: C_9  and  C_11
REMARK                            x       y       z     vdW  Elec       q    Type
REMARK                         _______ _______ _______ _____ _____    ______ ____
ROOT
ATOM      1  C   UNL     1      11.718  -9.368  -2.153  0.00  0.00    +0.000 C 
ATOM      2  H   UNL     1      12.211  -8.672  -2.843  0.00  0.00    +0.000 HD
ATOM      3  H   UNL     1      12.466  -9.652  -1.402  0.00  0.00    +0.000 HD
ENDROOT
BRANCH   1   4
ATOM      4  C   UNL     1      10.559  -8.646  -1.457  0.00  0.00    +0.000 C 
ATOM      5  H   UNL     1      10.906  -7.667  -1.104  0.00  0.00    +0.000 HD
ATOM      6  H   UNL     1       9.763  -8.455  -2.189  0.00  0.00    +0.000 HD
BRANCH   4   7
ATOM      7  C   UNL     1       9.975  -9.429  -0.277  0.00  0.00    +0.000 C 
ATOM      8  H   UNL     1      10.543 -10.358  -0.143  0.00  0.00    +0.000 HD
ATOM      9  H   UNL     1      10.105  -8.844   0.641  0.00  0.00    +0.000 HD
BRANCH   7  10
ATOM     10  C   UNL     1       8.492  -9.768  -0.452  0.00  0.00    +0.000 C 
ATOM     11  H   UNL     1       8.077  -9.167  -1.270  0.00  0.00    +0.000 HD
ATOM     12  H   UNL     1       7.947  -9.488   0.456  0.00  0.00    +0.000 HD
BRANCH  10  13
ATOM     13  C   UNL     1       8.234 -11.239  -0.743  0.00  0.00    +0.000 C 
ATOM     14  H   UNL     1       8.714 -11.541  -1.678  0.00  0.00    +0.000 HD
ATOM     15  H   UNL     1       7.159 -11.425  -0.834  0.00  0.00    +0.000 HD
ATOM     16  H   UNL     1       8.621 -11.870   0.063  0.00  0.00    +0.000 HD
ENDBRANCH  10  13
ENDBRANCH   7  10
ENDBRANCH   4   7
ENDBRANCH   1   4
BRANCH   1  17
ATOM     17  C   UNL     1      11.283 -10.617  -2.924  0.00  0.00    +0.000 C 
ATOM     18  H   UNL     1      11.255 -11.474  -2.240  0.00  0.00    +0.000 HD
ATOM     19  H   UNL     1      10.261 -10.473  -3.294  0.00  0.00    +0.000 HD
BRANCH  17  20
ATOM     20  C   UNL     1      12.199 -10.954  -4.108  0.00  0.00    +0.000 C 
ATOM     21  H   UNL     1      12.381 -10.037  -4.686  0.00  0.00    +0.000 HD
ATOM     22  H   UNL     1      11.662 -11.634  -4.782  0.00  0.00    +0.000 HD
BRANCH  20  23
ATOM     23  C   UNL     1      13.539 -11.581  -3.735  0.00  0.00    +0.000 C 
ATOM     24  H   UNL     1      13.584 -12.606  -4.116  0.00  0.00    +0.000 HD
ATOM     25  H   UNL     1      13.641 -11.603  -2.645  0.00  0.00    +0.000 HD
BRANCH  23  27
ATOM     26  O   UNL     1      15.569 -11.323  -5.018  0.00  0.00    +0.000 OA
ATOM     27  C   UNL     1      14.712 -10.822  -4.303  0.00  0.00    +0.000 C 
BRANCH  27  28
ATOM     28  O   UNL     1      14.720  -9.517  -3.930  0.00  0.00    +0.000 OA
ATOM     29  H   UNL     1      14.989  -9.406  -2.993  0.00  0.00    +0.000 HD
ENDBRANCH  27  28
ENDBRANCH  23  27
ENDBRANCH  20  23
ENDBRANCH  17  20
ENDBRANCH   1  17
TORSDOF 9
ENDMDL
MODEL 6
REMARK VINA RESULT:    -4.145     16.202     17.155
REMARK INTER + INTRA:          -6.302
REMARK INTER:                  -5.794
REMARK INTRA:                  -0.508
REMARK UNBOUND:                -0.219
REMARK  Name = 8158
REMARK  9 active torsions:
REMARK  status: ('A' for Active; 'I' for Inactive)
REMARK    1  A    between atoms: O_1  and  C_11
REMARK    2  A    between atoms: C_3  and  C_4
REMARK    3  A    between atoms: C_3  and  C_5
REMARK    4  A    between atoms: C_4  and  C_6
REMARK    5  A    between atoms: C_5  and  C_7
REMARK    6  A    between atoms: C_6  and  C_8
REMARK    7  A    between atoms: C_7  and  C_9
REMARK    8  A    between atoms: C_8  and  C_10
REMARK    9  A    between atoms: C_9  and  C_11
REMARK                            x       y       z     vdW  Elec       q    Type
REMARK                         _______ _______ _______ _____ _____    ______ ____
ROOT
ATOM      1  C   UNL     1      -3.314  -8.934 -10.369  0.00  0.00    +0.000 C 
ATOM      2  H   UNL     1      -4.038  -8.521 -11.082  0.00  0.00    +0.000 HD
ATOM      3  H   UNL     1      -2.475  -9.323 -10.959  0.00  0.00    +0.000 HD
ENDROOT
BRANCH   1   4
ATOM      4  C   UNL     1      -2.807  -7.808  -9.460  0.00  0.00    +0.000 C 
ATOM      5  H   UNL     1      -2.954  -8.100  -8.412  0.00  0.00    +0.000 HD
ATOM      6  H   UNL     1      -1.726  -7.688  -9.606  0.00  0.00    +0.000 HD
BRANCH   4   7
ATOM      7  C   UNL     1      -3.498  -6.465  -9.711  0.00  0.00    +0.000 C 
ATOM      8  H   UNL     1      -3.280  -5.785  -8.879  0.00  0.00    +0.000 HD
ATOM      9  H   UNL     1      -3.075  -6.007 -10.613  0.00  0.00    +0.000 HD
BRANCH   7  10
ATOM     10  C   UNL     1      -5.016  -6.588  -9.874  0.00  0.00    +0.000 C 
ATOM     11  H   UNL     1      -5.267  -7.613 -10.173  0.00  0.00    +0.000 HD
ATOM     12  H   UNL     1      -5.348  -5.931 -10.686  0.00  0.00    +0.000 HD
BRANCH  10  13
ATOM     13  C   UNL     1      -5.794  -6.240  -8.614  0.00  0.00    +0.000 C 
ATOM     14  H   UNL     1      -6.267  -7.130  -8.189  0.00  0.00    +0.000 HD
ATOM     15  H   UNL     1      -6.579  -5.511  -8.841  0.00  0.00    +0.000 HD
ATOM     16  H   UNL     1      -5.135  -5.806  -7.856  0.00  0.00    +0.000 HD
ENDBRANCH  10  13
ENDBRANCH   7  10
ENDBRANCH   4   7
ENDBRANCH   1   4
BRANCH   1  17
ATOM     17  C   UNL     1      -3.964 -10.088  -9.603  0.00  0.00    +0.000 C 
ATOM     18  H   UNL     1      -5.010 -10.189  -9.917  0.00  0.00    +0.000 HD
ATOM     19  H   UNL     1      -3.462 -11.026  -9.870  0.00  0.00    +0.000 HD
BRANCH  17  20
ATOM     20  C   UNL     1      -3.916  -9.915  -8.079  0.00  0.00    +0.000 C 
ATOM     21  H   UNL     1      -4.459  -8.998  -7.810  0.00  0.00    +0.000 HD
ATOM     22  H   UNL     1      -2.874  -9.747  -7.779  0.00  0.00    +0.000 HD
BRANCH  20  23
ATOM     23  C   UNL     1      -4.482 -11.081  -7.274  0.00  0.00    +0.000 C 
ATOM     24  H   UNL     1      -3.661 -11.658  -6.835  0.00  0.00    +0.000 HD
ATOM     25  H   UNL     1      -5.060 -11.735  -7.936  0.00  0.00    +0.000 HD
BRANCH  23  27
ATOM     26  O   UNL     1      -6.109 -11.380  -5.514  0.00  0.00    +0.000 OA
ATOM     27  C   UNL     1      -5.384 -10.629  -6.154  0.00  0.00    +0.000 C 
BRANCH  27  28
ATOM     28  O   UNL     1      -5.311  -9.292  -5.932  0.00  0.00    +0.000 OA
ATOM     29  H   UNL     1      -4.398  -8.951  -6.048  0.00  0.00    +0.000 HD
ENDBRANCH  27  28
ENDBRANCH  23  27
ENDBRANCH  20  23
ENDBRANCH  17  20
ENDBRANCH   1  17
TORSDOF 9
ENDMDL
MODEL 7
REMARK VINA RESULT:    -4.029     16.644     17.656
REMARK INTER + INTRA:          -6.131
REMARK INTER:                  -5.502
REMARK INTRA:                  -0.629
REMARK UNBOUND:                -0.219
REMARK  Name = 8158
REMARK  9 active torsions:
REMARK  status: ('A' for Active; 'I' for Inactive)
REMARK    1  A    between atoms: O_1  and  C_11
REMARK    2  A    between atoms: C_3  and  C_4
REMARK    3  A    between atoms: C_3  and  C_5
REMARK    4  A    between atoms: C_4  and  C_6
REMARK    5  A    between atoms: C_5  and  C_7
REMARK    6  A    between atoms: C_6  and  C_8
REMARK    7  A    between atoms: C_7  and  C_9
REMARK    8  A    between atoms: C_8  and  C_10
REMARK    9  A    between atoms: C_9  and  C_11
REMARK                            x       y       z     vdW  Elec       q    Type
REMARK                         _______ _______ _______ _____ _____    ______ ____
ROOT
ATOM      1  C   UNL     1      -4.588  -6.559  -9.150  0.00  0.00    +0.000 C 
ATOM      2  H   UNL     1      -4.100  -7.354  -8.573  0.00  0.00    +0.000 HD
ATOM      3  H   UNL     1      -4.108  -5.617  -8.859  0.00  0.00    +0.000 HD
ENDROOT
BRANCH   1   4
ATOM      4  C   UNL     1      -4.348  -6.804 -10.644  0.00  0.00    +0.000 C 
ATOM      5  H   UNL     1      -5.316  -6.929 -11.146  0.00  0.00    +0.000 HD
ATOM      6  H   UNL     1      -3.878  -5.914 -11.082  0.00  0.00    +0.000 HD
BRANCH   4   7
ATOM      7  C   UNL     1      -3.471  -8.025 -10.928  0.00  0.00    +0.000 C 
ATOM      8  H   UNL     1      -3.881  -8.574 -11.785  0.00  0.00    +0.000 HD
ATOM      9  H   UNL     1      -2.469  -7.688 -11.218  0.00  0.00    +0.000 HD
BRANCH   7  10
ATOM     10  C   UNL     1      -3.354  -8.976  -9.733  0.00  0.00    +0.000 C 
ATOM     11  H   UNL     1      -3.793  -8.500  -8.847  0.00  0.00    +0.000 HD
ATOM     12  H   UNL     1      -2.295  -9.148  -9.509  0.00  0.00    +0.000 HD
BRANCH  10  13
ATOM     13  C   UNL     1      -4.032 -10.320  -9.955  0.00  0.00    +0.000 C 
ATOM     14  H   UNL     1      -3.299 -11.086 -10.223  0.00  0.00    +0.000 HD
ATOM     15  H   UNL     1      -4.764 -10.247 -10.766  0.00  0.00    +0.000 HD
ATOM     16  H   UNL     1      -4.556 -10.646  -9.052  0.00  0.00    +0.000 HD
ENDBRANCH  10  13
ENDBRANCH   7  10
ENDBRANCH   4   7
ENDBRANCH   1   4
BRANCH   1  17
ATOM     17  C   UNL     1      -6.071  -6.502  -8.772  0.00  0.00    +0.000 C 
ATOM     18  H   UNL     1      -6.235  -5.678  -8.068  0.00  0.00    +0.000 HD
ATOM     19  H   UNL     1      -6.662  -6.275  -9.668  0.00  0.00    +0.000 HD
BRANCH  17  20
ATOM     20  C   UNL     1      -6.593  -7.803  -8.148  0.00  0.00    +0.000 C 
ATOM     21  H   UNL     1      -5.946  -8.632  -8.465  0.00  0.00    +0.000 HD
ATOM     22  H   UNL     1      -7.585  -8.017  -8.568  0.00  0.00    +0.000 HD
BRANCH  20  23
ATOM     23  C   UNL     1      -6.688  -7.800  -6.625  0.00  0.00    +0.000 C 
ATOM     24  H   UNL     1      -7.712  -8.043  -6.320  0.00  0.00    +0.000 HD
ATOM     25  H   UNL     1      -6.432  -6.806  -6.245  0.00  0.00    +0.000 HD
BRANCH  23  27
ATOM     26  O   UNL     1      -5.022  -9.548  -6.613  0.00  0.00    +0.000 OA
ATOM     27  C   UNL     1      -5.762  -8.802  -5.985  0.00  0.00    +0.000 C 
BRANCH  27  28
ATOM     28  O   UNL     1      -5.840  -8.795  -4.630  0.00  0.00    +0.000 OA
ATOM     29  H   UNL     1      -5.157  -8.217  -4.228  0.00  0.00    +0.000 HD
ENDBRANCH  27  28
ENDBRANCH  23  27
ENDBRANCH  20  23
ENDBRANCH  17  20
ENDBRANCH   1  17
TORSDOF 9
ENDMDL
MODEL 8
REMARK VINA RESULT:    -3.958      4.557      6.443
REMARK INTER + INTRA:          -6.027
REMARK INTER:                  -5.728
REMARK INTRA:                  -0.299
REMARK UNBOUND:                -0.219
REMARK  Name = 8158
REMARK  9 active torsions:
REMARK  status: ('A' for Active; 'I' for Inactive)
REMARK    1  A    between atoms: O_1  and  C_11
REMARK    2  A    between atoms: C_3  and  C_4
REMARK    3  A    between atoms: C_3  and  C_5
REMARK    4  A    between atoms: C_4  and  C_6
REMARK    5  A    between atoms: C_5  and  C_7
REMARK    6  A    between atoms: C_6  and  C_8
REMARK    7  A    between atoms: C_7  and  C_9
REMARK    8  A    between atoms: C_8  and  C_10
REMARK    9  A    between atoms: C_9  and  C_11
REMARK                            x       y       z     vdW  Elec       q    Type
REMARK                         _______ _______ _______ _____ _____    ______ ____
ROOT
ATOM      1  C   UNL     1      11.468  -8.642  -6.094  0.00  0.00    +0.000 C 
ATOM      2  H   UNL     1      10.628  -8.173  -5.568  0.00  0.00    +0.000 HD
ATOM      3  H   UNL     1      12.008  -7.837  -6.608  0.00  0.00    +0.000 HD
ENDROOT
BRANCH   1   4
ATOM      4  C   UNL     1      12.402  -9.295  -5.068  0.00  0.00    +0.000 C 
ATOM      5  H   UNL     1      12.587 -10.335  -5.364  0.00  0.00    +0.000 HD
ATOM      6  H   UNL     1      13.373  -8.783  -5.089  0.00  0.00    +0.000 HD
BRANCH   4   7
ATOM      7  C   UNL     1      11.852  -9.266  -3.640  0.00  0.00    +0.000 C 
ATOM      8  H   UNL     1      12.449  -8.572  -3.036  0.00  0.00    +0.000 HD
ATOM      9  H   UNL     1      10.829  -8.871  -3.657  0.00  0.00    +0.000 HD
BRANCH   7  10
ATOM     10  C   UNL     1      11.848 -10.641  -2.966  0.00  0.00    +0.000 C 
ATOM     11  H   UNL     1      11.415 -10.552  -1.962  0.00  0.00    +0.000 HD
ATOM     12  H   UNL     1      12.880 -10.985  -2.837  0.00  0.00    +0.000 HD
BRANCH  10  13
ATOM     13  C   UNL     1      11.074 -11.697  -3.742  0.00  0.00    +0.000 C 
ATOM     14  H   UNL     1      10.136 -11.288  -4.128  0.00  0.00    +0.000 HD
ATOM     15  H   UNL     1      10.837 -12.547  -3.094  0.00  0.00    +0.000 HD
ATOM     16  H   UNL     1      11.662 -12.067  -4.588  0.00  0.00    +0.000 HD
ENDBRANCH  10  13
ENDBRANCH   7  10
ENDBRANCH   4   7
ENDBRANCH   1   4
BRANCH   1  17
ATOM     17  C   UNL     1      10.926  -9.624  -7.135  0.00  0.00    +0.000 C 
ATOM     18  H   UNL     1      11.719 -10.327  -7.420  0.00  0.00    +0.000 HD
ATOM     19  H   UNL     1      10.122 -10.219  -6.684  0.00  0.00    +0.000 HD
BRANCH  17  20
ATOM     20  C   UNL     1      10.389  -8.940  -8.400  0.00  0.00    +0.000 C 
ATOM     21  H   UNL     1      11.202  -8.871  -9.136  0.00  0.00    +0.000 HD
ATOM     22  H   UNL     1      10.120  -7.906  -8.149  0.00  0.00    +0.000 HD
BRANCH  20  23
ATOM     23  C   UNL     1       9.188  -9.623  -9.047  0.00  0.00    +0.000 C 
ATOM     24  H   UNL     1       8.793 -10.390  -8.372  0.00  0.00    +0.000 HD
ATOM     25  H   UNL     1       9.499 -10.101  -9.982  0.00  0.00    +0.000 HD
BRANCH  23  27
ATOM     26  O   UNL     1       8.050  -7.494  -8.984  0.00  0.00    +0.000 OA
ATOM     27  C   UNL     1       8.072  -8.659  -9.360  0.00  0.00    +0.000 C 
BRANCH  27  28
ATOM     28  O   UNL     1       7.086  -9.223 -10.102  0.00  0.00    +0.000 OA
ATOM     29  H   UNL     1       7.119 -10.203 -10.069  0.00  0.00    +0.000 HD
ENDBRANCH  27  28
ENDBRANCH  23  27
ENDBRANCH  20  23
ENDBRANCH  17  20
ENDBRANCH   1  17
TORSDOF 9
ENDMDL
MODEL 9
REMARK VINA RESULT:    -3.937     21.684     22.289
REMARK INTER + INTRA:          -5.998
REMARK INTER:                  -5.693
REMARK INTRA:                  -0.304
REMARK UNBOUND:                -0.219
REMARK  Name = 8158
REMARK  9 active torsions:
REMARK  status: ('A' for Active; 'I' for Inactive)
REMARK    1  A    between atoms: O_1  and  C_11
REMARK    2  A    between atoms: C_3  and  C_4
REMARK    3  A    between atoms: C_3  and  C_5
REMARK    4  A    between atoms: C_4  and  C_6
REMARK    5  A    between atoms: C_5  and  C_7
REMARK    6  A    between atoms: C_6  and  C_8
REMARK    7  A    between atoms: C_7  and  C_9
REMARK    8  A    between atoms: C_8  and  C_10
REMARK    9  A    between atoms: C_9  and  C_11
REMARK                            x       y       z     vdW  Elec       q    Type
REMARK                         _______ _______ _______ _____ _____    ______ ____
ROOT
ATOM      1  C   UNL     1       9.962  13.138  -4.127  0.00  0.00    +0.000 C 
ATOM      2  H   UNL     1      10.751  13.036  -3.371  0.00  0.00    +0.000 HD
ATOM      3  H   UNL     1       9.589  14.167  -4.059  0.00  0.00    +0.000 HD
ENDROOT
BRANCH   1   4
ATOM      4  C   UNL     1      10.568  12.916  -5.517  0.00  0.00    +0.000 C 
ATOM      5  H   UNL     1      11.005  13.858  -5.872  0.00  0.00    +0.000 HD
ATOM      6  H   UNL     1      11.393  12.195  -5.439  0.00  0.00    +0.000 HD
BRANCH   4   7
ATOM      7  C   UNL     1       9.557  12.408  -6.548  0.00  0.00    +0.000 C 
ATOM      8  H   UNL     1       9.976  11.537  -7.067  0.00  0.00    +0.000 HD
ATOM      9  H   UNL     1       8.656  12.064  -6.028  0.00  0.00    +0.000 HD
BRANCH   7  10
ATOM     10  C   UNL     1       9.166  13.468  -7.583  0.00  0.00    +0.000 C 
ATOM     11  H   UNL     1       8.701  14.320  -7.071  0.00  0.00    +0.000 HD
ATOM     12  H   UNL     1       8.410  13.053  -8.259  0.00  0.00    +0.000 HD
BRANCH  10  13
ATOM     13  C   UNL     1      10.338  13.972  -8.411  0.00  0.00    +0.000 C 
ATOM     14  H   UNL     1      10.583  15.006  -8.151  0.00  0.00    +0.000 HD
ATOM     15  H   UNL     1      10.093  13.936  -9.478  0.00  0.00    +0.000 HD
ATOM     16  H   UNL     1      11.227  13.356  -8.245  0.00  0.00    +0.000 HD
ENDBRANCH  10  13
ENDBRANCH   7  10
ENDBRANCH   4   7
ENDBRANCH   1   4
BRANCH   1  17
ATOM     17  C   UNL     1       8.823  12.169  -3.798  0.00  0.00    +0.000 C 
ATOM     18  H   UNL     1       7.863  12.642  -4.040  0.00  0.00    +0.000 HD
ATOM     19  H   UNL     1       8.909  11.282  -4.437  0.00  0.00    +0.000 HD
BRANCH  17  20
ATOM     20  C   UNL     1       8.803  11.725  -2.329  0.00  0.00    +0.000 C 
ATOM     21  H   UNL     1       9.803  11.360  -2.057  0.00  0.00    +0.000 HD
ATOM     22  H   UNL     1       8.131  10.863  -2.235  0.00  0.00    +0.000 HD
BRANCH  20  23
ATOM     23  C   UNL     1       8.377  12.799  -1.332  0.00  0.00    +0.000 C 
ATOM     24  H   UNL     1       8.645  13.787  -1.719  0.00  0.00    +0.000 HD
ATOM     25  H   UNL     1       8.894  12.639  -0.380  0.00  0.00    +0.000 HD
BRANCH  23  27
ATOM     26  O   UNL     1       6.079  13.436  -1.715  0.00  0.00    +0.000 OA
ATOM     27  C   UNL     1       6.893  12.788  -1.069  0.00  0.00    +0.000 C 
BRANCH  27  28
ATOM     28  O   UNL     1       6.552  11.985  -0.030  0.00  0.00    +0.000 OA
ATOM     29  H   UNL     1       7.096  11.169  -0.004  0.00  0.00    +0.000 HD
ENDBRANCH  27  28
ENDBRANCH  23  27
ENDBRANCH  20  23
ENDBRANCH  17  20
ENDBRANCH   1  17
TORSDOF 9
ENDMDL
MODEL 10
REMARK VINA RESULT:    -3.868      5.697      7.185
REMARK INTER + INTRA:          -5.896
REMARK INTER:                  -5.677
REMARK INTRA:                  -0.219
REMARK UNBOUND:                -0.219
REMARK  Name = 8158
REMARK  9 active torsions:
REMARK  status: ('A' for Active; 'I' for Inactive)
REMARK    1  A    between atoms: O_1  and  C_11
REMARK    2  A    between atoms: C_3  and  C_4
REMARK    3  A    between atoms: C_3  and  C_5
REMARK    4  A    between atoms: C_4  and  C_6
REMARK    5  A    between atoms: C_5  and  C_7
REMARK    6  A    between atoms: C_6  and  C_8
REMARK    7  A    between atoms: C_7  and  C_9
REMARK    8  A    between atoms: C_8  and  C_10
REMARK    9  A    between atoms: C_9  and  C_11
REMARK                            x       y       z     vdW  Elec       q    Type
REMARK                         _______ _______ _______ _____ _____    ______ ____
ROOT
ATOM      1  C   UNL     1      10.831 -10.344  -6.688  0.00  0.00    +0.000 C 
ATOM      2  H   UNL     1      11.506 -11.205  -6.775  0.00  0.00    +0.000 HD
ATOM      3  H   UNL     1      10.207 -10.518  -5.803  0.00  0.00    +0.000 HD
ENDROOT
BRANCH   1   4
ATOM      4  C   UNL     1      11.664  -9.075  -6.472  0.00  0.00    +0.000 C 
ATOM      5  H   UNL     1      12.503  -9.071  -7.180  0.00  0.00    +0.000 HD
ATOM      6  H   UNL     1      11.048  -8.197  -6.709  0.00  0.00    +0.000 HD
BRANCH   4   7
ATOM      7  C   UNL     1      12.205  -8.937  -5.047  0.00  0.00    +0.000 C 
ATOM      8  H   UNL     1      13.299  -8.860  -5.082  0.00  0.00    +0.000 HD
ATOM      9  H   UNL     1      11.836  -8.001  -4.611  0.00  0.00    +0.000 HD
BRANCH   7  10
ATOM     10  C   UNL     1      11.813 -10.104  -4.137  0.00  0.00    +0.000 C 
ATOM     11  H   UNL     1      12.521 -10.930  -4.281  0.00  0.00    +0.000 HD
ATOM     12  H   UNL     1      10.826 -10.478  -4.431  0.00  0.00    +0.000 HD
BRANCH  10  13
ATOM     13  C   UNL     1      11.778  -9.740  -2.660  0.00  0.00    +0.000 C 
ATOM     14  H   UNL     1      12.525 -10.310  -2.100  0.00  0.00    +0.000 HD
ATOM     15  H   UNL     1      10.793  -9.958  -2.238  0.00  0.00    +0.000 HD
ATOM     16  H   UNL     1      11.982  -8.674  -2.517  0.00  0.00    +0.000 HD
ENDBRANCH  10  13
ENDBRANCH   7  10
ENDBRANCH   4   7
ENDBRANCH   1   4
BRANCH   1  17
ATOM     17  C   UNL     1       9.935 -10.280  -7.928  0.00  0.00    +0.000 C 
ATOM     18  H   UNL     1       9.253  -9.426  -7.839  0.00  0.00    +0.000 HD
ATOM     19  H   UNL     1      10.557 -10.098  -8.813  0.00  0.00    +0.000 HD
BRANCH  17  20
ATOM     20  C   UNL     1       9.111 -11.556  -8.152  0.00  0.00    +0.000 C 
ATOM     21  H   UNL     1       8.066 -11.353  -7.880  0.00  0.00    +0.000 HD
ATOM     22  H   UNL     1       9.462 -12.325  -7.452  0.00  0.00    +0.000 HD
BRANCH  20  23
ATOM     23  C   UNL     1       9.157 -12.117  -9.571  0.00  0.00    +0.000 C 
ATOM     24  H   UNL     1      10.023 -12.779  -9.676  0.00  0.00    +0.000 HD
ATOM     25  H   UNL     1       9.251 -11.294 -10.286  0.00  0.00    +0.000 HD
BRANCH  23  27
ATOM     26  O   UNL     1       7.514 -13.067 -11.063  0.00  0.00    +0.000 OA
ATOM     27  C   UNL     1       7.922 -12.907  -9.921  0.00  0.00    +0.000 C 
BRANCH  27  28
ATOM     28  O   UNL     1       7.304 -13.422  -8.828  0.00  0.00    +0.000 OA
ATOM     29  H   UNL     1       7.367 -12.821  -8.055  0.00  0.00    +0.000 HD
ENDBRANCH  27  28
ENDBRANCH  23  27
ENDBRANCH  20  23
ENDBRANCH  17  20
ENDBRANCH   1  17
TORSDOF 9
ENDMDL
