MODEL 1
REMARK VINA RESULT:    -4.243      0.000      0.000
REMARK INTER + INTRA:          -6.073
REMARK INTER:                  -5.821
REMARK INTRA:                  -0.252
REMARK UNBOUND:                -0.218
REMARK  Name = 454
REMARK  7 active torsions:
REMARK  status: ('A' for Active; 'I' for Inactive)
REMARK    1  A    between atoms: C_2  and  C_3
REMARK    2  A    between atoms: C_2  and  C_4
REMARK    3  A    between atoms: C_3  and  C_5
REMARK    4  A    between atoms: C_4  and  C_6
REMARK    5  A    between atoms: C_5  and  C_7
REMARK    6  A    between atoms: C_6  and  C_8
REMARK    7  A    between atoms: C_7  and  C_9
REMARK                            x       y       z     vdW  Elec       q    Type
REMARK                         _______ _______ _______ _____ _____    ______ ____
ROOT
ATOM      1  C   UNL     1       0.585  -4.889  15.799  0.00  0.00    +0.000 C 
ATOM      2  H   UNL     1      -0.097  -4.242  15.235  0.00  0.00    +0.000 HD
ATOM      3  H   UNL     1       0.169  -4.996  16.808  0.00  0.00    +0.000 HD
ENDROOT
BRANCH   1   4
ATOM      4  C   UNL     1       0.659  -6.264  15.132  0.00  0.00    +0.000 C 
ATOM      5  H   UNL     1      -0.244  -6.426  14.530  0.00  0.00    +0.000 HD
ATOM      6  H   UNL     1       0.665  -7.039  15.908  0.00  0.00    +0.000 HD
BRANCH   4   7
ATOM      7  C   UNL     1       1.889  -6.440  14.239  0.00  0.00    +0.000 C 
ATOM      8  H   UNL     1       1.594  -6.331  13.187  0.00  0.00    +0.000 HD
ATOM      9  H   UNL     1       2.597  -5.628  14.446  0.00  0.00    +0.000 HD
BRANCH   7  10
ATOM     10  C   UNL     1       2.592  -7.781  14.432  0.00  0.00    +0.000 C 
ATOM     11  H   UNL     1       2.977  -7.868  15.454  0.00  0.00    +0.000 HD
ATOM     12  H   UNL     1       1.892  -8.605  14.259  0.00  0.00    +0.000 HD
BRANCH  10  14
ATOM     13  O   UNL     1       3.784  -8.753  12.553  0.00  0.00    +0.000 OA
ATOM     14  C   UNL     1       3.759  -7.964  13.492  0.00  0.00    +0.000 C 
ATOM     15  H   UNL     1       4.628  -7.317  13.700  0.00  0.00    +0.000 HD
ENDBRANCH  10  14
ENDBRANCH   7  10
ENDBRANCH   4   7
ENDBRANCH   1   4
BRANCH   1  16
ATOM     16  C   UNL     1       1.967  -4.236  15.879  0.00  0.00    +0.000 C 
ATOM     17  H   UNL     1       2.718  -4.910  15.451  0.00  0.00    +0.000 HD
ATOM     18  H   UNL     1       2.237  -4.077  16.931  0.00  0.00    +0.000 HD
BRANCH  16  19
ATOM     19  C   UNL     1       1.995  -2.899  15.139  0.00  0.00    +0.000 C 
ATOM     20  H   UNL     1       1.349  -2.950  14.255  0.00  0.00    +0.000 HD
ATOM     21  H   UNL     1       1.597  -2.107  15.785  0.00  0.00    +0.000 HD
BRANCH  19  22
ATOM     22  C   UNL     1       3.405  -2.528  14.709  0.00  0.00    +0.000 C 
ATOM     23  H   UNL     1       3.727  -3.139  13.859  0.00  0.00    +0.000 HD
ATOM     24  H   UNL     1       4.108  -2.692  15.531  0.00  0.00    +0.000 HD
ATOM     25  H   UNL     1       3.462  -1.475  14.417  0.00  0.00    +0.000 HD
ENDBRANCH  19  22
ENDBRANCH  16  19
ENDBRANCH   1  16
TORSDOF 7
ENDMDL
MODEL 2
REMARK VINA RESULT:    -4.093     16.046     17.054
REMARK INTER + INTRA:          -5.866
REMARK INTER:                  -5.550
REMARK INTRA:                  -0.315
REMARK UNBOUND:                -0.218
REMARK  Name = 454
REMARK  7 active torsions:
REMARK  status: ('A' for Active; 'I' for Inactive)
REMARK    1  A    between atoms: C_2  and  C_3
REMARK    2  A    between atoms: C_2  and  C_4
REMARK    3  A    between atoms: C_3  and  C_5
REMARK    4  A    between atoms: C_4  and  C_6
REMARK    5  A    between atoms: C_5  and  C_7
REMARK    6  A    between atoms: C_6  and  C_8
REMARK    7  A    between atoms: C_7  and  C_9
REMARK                            x       y       z     vdW  Elec       q    Type
REMARK                         _______ _______ _______ _____ _____    ______ ____
ROOT
ATOM      1  C   UNL     1       5.578  -3.493  -1.477  0.00  0.00    +0.000 C 
ATOM      2  H   UNL     1       5.580  -4.340  -2.172  0.00  0.00    +0.000 HD
ATOM      3  H   UNL     1       5.555  -3.906  -0.461  0.00  0.00    +0.000 HD
ENDROOT
BRANCH   1   4
ATOM      4  C   UNL     1       6.859  -2.674  -1.662  0.00  0.00    +0.000 C 
ATOM      5  H   UNL     1       6.681  -1.882  -2.399  0.00  0.00    +0.000 HD
ATOM      6  H   UNL     1       7.641  -3.323  -2.075  0.00  0.00    +0.000 HD
BRANCH   4   7
ATOM      7  C   UNL     1       7.367  -2.041  -0.365  0.00  0.00    +0.000 C 
ATOM      8  H   UNL     1       6.681  -1.242  -0.057  0.00  0.00    +0.000 HD
ATOM      9  H   UNL     1       7.341  -2.794   0.432  0.00  0.00    +0.000 HD
BRANCH   7  10
ATOM     10  C   UNL     1       8.781  -1.479  -0.479  0.00  0.00    +0.000 C 
ATOM     11  H   UNL     1       8.778  -0.396  -0.313  0.00  0.00    +0.000 HD
ATOM     12  H   UNL     1       9.435  -1.938   0.270  0.00  0.00    +0.000 HD
BRANCH  10  14
ATOM     13  O   UNL     1      10.017  -0.890  -2.486  0.00  0.00    +0.000 OA
ATOM     14  C   UNL     1       9.395  -1.726  -1.837  0.00  0.00    +0.000 C 
ATOM     15  H   UNL     1       9.252  -2.745  -2.233  0.00  0.00    +0.000 HD
ENDBRANCH  10  14
ENDBRANCH   7  10
ENDBRANCH   4   7
ENDBRANCH   1   4
BRANCH   1  16
ATOM     16  C   UNL     1       4.333  -2.635  -1.711  0.00  0.00    +0.000 C 
ATOM     17  H   UNL     1       3.811  -2.982  -2.611  0.00  0.00    +0.000 HD
ATOM     18  H   UNL     1       4.634  -1.595  -1.893  0.00  0.00    +0.000 HD
BRANCH  16  19
ATOM     19  C   UNL     1       3.386  -2.688  -0.513  0.00  0.00    +0.000 C 
ATOM     20  H   UNL     1       3.142  -1.670  -0.187  0.00  0.00    +0.000 HD
ATOM     21  H   UNL     1       2.445  -3.170  -0.804  0.00  0.00    +0.000 HD
BRANCH  19  22
ATOM     22  C   UNL     1       3.998  -3.453   0.649  0.00  0.00    +0.000 C 
ATOM     23  H   UNL     1       3.584  -4.465   0.713  0.00  0.00    +0.000 HD
ATOM     24  H   UNL     1       3.788  -2.941   1.593  0.00  0.00    +0.000 HD
ATOM     25  H   UNL     1       5.083  -3.532   0.538  0.00  0.00    +0.000 HD
ENDBRANCH  19  22
ENDBRANCH  16  19
ENDBRANCH   1  16
TORSDOF 7
ENDMDL
MODEL 3
REMARK VINA RESULT:    -4.062      3.257      4.906
REMARK INTER + INTRA:          -5.823
REMARK INTER:                  -5.565
REMARK INTRA:                  -0.258
REMARK UNBOUND:                -0.218
REMARK  Name = 454
REMARK  7 active torsions:
REMARK  status: ('A' for Active; 'I' for Inactive)
REMARK    1  A    between atoms: C_2  and  C_3
REMARK    2  A    between atoms: C_2  and  C_4
REMARK    3  A    between atoms: C_3  and  C_5
REMARK    4  A    between atoms: C_4  and  C_6
REMARK    5  A    between atoms: C_5  and  C_7
REMARK    6  A    between atoms: C_6  and  C_8
REMARK    7  A    between atoms: C_7  and  C_9
REMARK                            x       y       z     vdW  Elec       q    Type
REMARK                         _______ _______ _______ _____ _____    ______ ____
ROOT
ATOM      1  C   UNL     1      -0.481  -7.045  16.016  0.00  0.00    +0.000 C 
ATOM      2  H   UNL     1      -1.485  -7.044  15.574  0.00  0.00    +0.000 HD
ATOM      3  H   UNL     1       0.214  -7.393  15.242  0.00  0.00    +0.000 HD
ENDROOT
BRANCH   1   4
ATOM      4  C   UNL     1      -0.103  -5.622  16.433  0.00  0.00    +0.000 C 
ATOM      5  H   UNL     1       0.494  -5.658  17.353  0.00  0.00    +0.000 HD
ATOM      6  H   UNL     1      -1.017  -5.063  16.671  0.00  0.00    +0.000 HD
BRANCH   4   7
ATOM      7  C   UNL     1       0.683  -4.863  15.362  0.00  0.00    +0.000 C 
ATOM      8  H   UNL     1       0.827  -5.513  14.488  0.00  0.00    +0.000 HD
ATOM      9  H   UNL     1       0.083  -4.012  15.017  0.00  0.00    +0.000 HD
BRANCH   7  10
ATOM     10  C   UNL     1       2.039  -4.359  15.848  0.00  0.00    +0.000 C 
ATOM     11  H   UNL     1       1.920  -3.751  16.752  0.00  0.00    +0.000 HD
ATOM     12  H   UNL     1       2.695  -5.202  16.086  0.00  0.00    +0.000 HD
BRANCH  10  14
ATOM     13  O   UNL     1       2.373  -2.390  14.464  0.00  0.00    +0.000 OA
ATOM     14  C   UNL     1       2.742  -3.506  14.819  0.00  0.00    +0.000 C 
ATOM     15  H   UNL     1       3.651  -3.956  14.385  0.00  0.00    +0.000 HD
ENDBRANCH  10  14
ENDBRANCH   7  10
ENDBRANCH   4   7
ENDBRANCH   1   4
BRANCH   1  16
ATOM     16  C   UNL     1      -0.444  -8.001  17.210  0.00  0.00    +0.000 C 
ATOM     17  H   UNL     1      -0.109  -8.992  16.878  0.00  0.00    +0.000 HD
ATOM     18  H   UNL     1      -1.456  -8.122  17.614  0.00  0.00    +0.000 HD
BRANCH  16  19
ATOM     19  C   UNL     1       0.486  -7.486  18.308  0.00  0.00    +0.000 C 
ATOM     20  H   UNL     1       1.490  -7.902  18.170  0.00  0.00    +0.000 HD
ATOM     21  H   UNL     1       0.574  -6.395  18.239  0.00  0.00    +0.000 HD
BRANCH  19  22
ATOM     22  C   UNL     1      -0.024  -7.858  19.691  0.00  0.00    +0.000 C 
ATOM     23  H   UNL     1      -0.880  -8.537  19.623  0.00  0.00    +0.000 HD
ATOM     24  H   UNL     1      -0.344  -6.961  20.231  0.00  0.00    +0.000 HD
ATOM     25  H   UNL     1       0.758  -8.348  20.278  0.00  0.00    +0.000 HD
ENDBRANCH  19  22
ENDBRANCH  16  19
ENDBRANCH   1  16
TORSDOF 7
ENDMDL
MODEL 4
REMARK VINA RESULT:    -3.875     16.227     17.411
REMARK INTER + INTRA:          -5.565
REMARK INTER:                  -5.315
REMARK INTRA:                  -0.250
REMARK UNBOUND:                -0.218
REMARK  Name = 454
REMARK  7 active torsions:
REMARK  status: ('A' for Active; 'I' for Inactive)
REMARK    1  A    between atoms: C_2  and  C_3
REMARK    2  A    between atoms: C_2  and  C_4
REMARK    3  A    between atoms: C_3  and  C_5
REMARK    4  A    between atoms: C_4  and  C_6
REMARK    5  A    between atoms: C_5  and  C_7
REMARK    6  A    between atoms: C_6  and  C_8
REMARK    7  A    between atoms: C_7  and  C_9
REMARK                            x       y       z     vdW  Elec       q    Type
REMARK                         _______ _______ _______ _____ _____    ______ ____
ROOT
ATOM      1  C   UNL     1       7.502  -2.526  -1.512  0.00  0.00    +0.000 C 
ATOM      2  H   UNL     1       7.713  -1.452  -1.584  0.00  0.00    +0.000 HD
ATOM      3  H   UNL     1       6.971  -2.690  -0.567  0.00  0.00    +0.000 HD
ENDROOT
BRANCH   1   4
ATOM      4  C   UNL     1       6.605  -2.952  -2.677  0.00  0.00    +0.000 C 
ATOM      5  H   UNL     1       6.991  -3.882  -3.113  0.00  0.00    +0.000 HD
ATOM      6  H   UNL     1       6.655  -2.189  -3.465  0.00  0.00    +0.000 HD
BRANCH   4   7
ATOM      7  C   UNL     1       5.144  -3.161  -2.274  0.00  0.00    +0.000 C 
ATOM      8  H   UNL     1       4.490  -2.752  -3.055  0.00  0.00    +0.000 HD
ATOM      9  H   UNL     1       4.938  -4.237  -2.232  0.00  0.00    +0.000 HD
BRANCH   7  10
ATOM     10  C   UNL     1       4.789  -2.528  -0.932  0.00  0.00    +0.000 C 
ATOM     11  H   UNL     1       5.658  -2.008  -0.512  0.00  0.00    +0.000 HD
ATOM     12  H   UNL     1       3.982  -1.798  -1.057  0.00  0.00    +0.000 HD
BRANCH  10  14
ATOM     13  O   UNL     1       5.078  -4.137   0.865  0.00  0.00    +0.000 OA
ATOM     14  C   UNL     1       4.335  -3.546   0.086  0.00  0.00    +0.000 C 
ATOM     15  H   UNL     1       3.249  -3.738   0.099  0.00  0.00    +0.000 HD
ENDBRANCH  10  14
ENDBRANCH   7  10
ENDBRANCH   4   7
ENDBRANCH   1   4
BRANCH   1  16
ATOM     16  C   UNL     1       8.815  -3.311  -1.508  0.00  0.00    +0.000 C 
ATOM     17  H   UNL     1       8.670  -4.275  -2.009  0.00  0.00    +0.000 HD
ATOM     18  H   UNL     1       9.110  -3.526  -0.473  0.00  0.00    +0.000 HD
BRANCH  16  19
ATOM     19  C   UNL     1       9.932  -2.533  -2.204  0.00  0.00    +0.000 C 
ATOM     20  H   UNL     1       9.520  -1.629  -2.669  0.00  0.00    +0.000 HD
ATOM     21  H   UNL     1      10.676  -2.209  -1.467  0.00  0.00    +0.000 HD
BRANCH  19  22
ATOM     22  C   UNL     1      10.619  -3.374  -3.267  0.00  0.00    +0.000 C 
ATOM     23  H   UNL     1      10.629  -2.855  -4.231  0.00  0.00    +0.000 HD
ATOM     24  H   UNL     1      10.092  -4.324  -3.399  0.00  0.00    +0.000 HD
ATOM     25  H   UNL     1      11.653  -3.595  -2.985  0.00  0.00    +0.000 HD
ENDBRANCH  19  22
ENDBRANCH  16  19
ENDBRANCH   1  16
TORSDOF 7
ENDMDL
MODEL 5
REMARK VINA RESULT:    -3.855      3.161      3.739
REMARK INTER + INTRA:          -5.537
REMARK INTER:                  -5.381
REMARK INTRA:                  -0.156
REMARK UNBOUND:                -0.218
REMARK  Name = 454
REMARK  7 active torsions:
REMARK  status: ('A' for Active; 'I' for Inactive)
REMARK    1  A    between atoms: C_2  and  C_3
REMARK    2  A    between atoms: C_2  and  C_4
REMARK    3  A    between atoms: C_3  and  C_5
REMARK    4  A    between atoms: C_4  and  C_6
REMARK    5  A    between atoms: C_5  and  C_7
REMARK    6  A    between atoms: C_6  and  C_8
REMARK    7  A    between atoms: C_7  and  C_9
REMARK                            x       y       z     vdW  Elec       q    Type
REMARK                         _______ _______ _______ _____ _____    ______ ____
ROOT
ATOM      1  C   UNL     1       1.908  -5.083  15.059  0.00  0.00    +0.000 C 
ATOM      2  H   UNL     1       2.532  -5.574  15.816  0.00  0.00    +0.000 HD
ATOM      3  H   UNL     1       2.468  -5.099  14.117  0.00  0.00    +0.000 HD
ENDROOT
BRANCH   1   4
ATOM      4  C   UNL     1       0.602  -5.863  14.886  0.00  0.00    +0.000 C 
ATOM      5  H   UNL     1       0.512  -6.197  13.845  0.00  0.00    +0.000 HD
ATOM      6  H   UNL     1      -0.244  -5.191  15.078  0.00  0.00    +0.000 HD
BRANCH   4   7
ATOM      7  C   UNL     1       0.495  -7.079  15.809  0.00  0.00    +0.000 C 
ATOM      8  H   UNL     1       0.085  -7.927  15.245  0.00  0.00    +0.000 HD
ATOM      9  H   UNL     1       1.502  -7.376  16.123  0.00  0.00    +0.000 HD
BRANCH   7  10
ATOM     10  C   UNL     1      -0.365  -6.828  17.045  0.00  0.00    +0.000 C 
ATOM     11  H   UNL     1      -0.106  -5.867  17.503  0.00  0.00    +0.000 HD
ATOM     12  H   UNL     1      -1.425  -6.802  16.772  0.00  0.00    +0.000 HD
BRANCH  10  14
ATOM     13  O   UNL     1      -0.246  -7.698  19.309  0.00  0.00    +0.000 OA
ATOM     14  C   UNL     1      -0.187  -7.894  18.099  0.00  0.00    +0.000 C 
ATOM     15  H   UNL     1       0.002  -8.908  17.708  0.00  0.00    +0.000 HD
ENDBRANCH  10  14
ENDBRANCH   7  10
ENDBRANCH   4   7
ENDBRANCH   1   4
BRANCH   1  16
ATOM     16  C   UNL     1       1.638  -3.635  15.473  0.00  0.00    +0.000 C 
ATOM     17  H   UNL     1       0.944  -3.617  16.322  0.00  0.00    +0.000 HD
ATOM     18  H   UNL     1       1.151  -3.102  14.647  0.00  0.00    +0.000 HD
BRANCH  16  19
ATOM     19  C   UNL     1       2.931  -2.913  15.851  0.00  0.00    +0.000 C 
ATOM     20  H   UNL     1       2.696  -1.992  16.398  0.00  0.00    +0.000 HD
ATOM     21  H   UNL     1       3.528  -3.544  16.520  0.00  0.00    +0.000 HD
BRANCH  19  22
ATOM     22  C   UNL     1       3.758  -2.568  14.623  0.00  0.00    +0.000 C 
ATOM     23  H   UNL     1       3.202  -1.908  13.950  0.00  0.00    +0.000 HD
ATOM     24  H   UNL     1       4.015  -3.478  14.071  0.00  0.00    +0.000 HD
ATOM     25  H   UNL     1       4.689  -2.067  14.905  0.00  0.00    +0.000 HD
ENDBRANCH  19  22
ENDBRANCH  16  19
ENDBRANCH   1  16
TORSDOF 7
ENDMDL
MODEL 6
REMARK VINA RESULT:    -3.831     15.349     16.351
REMARK INTER + INTRA:          -5.504
REMARK INTER:                  -5.132
REMARK INTRA:                  -0.372
REMARK UNBOUND:                -0.218
REMARK  Name = 454
REMARK  7 active torsions:
REMARK  status: ('A' for Active; 'I' for Inactive)
REMARK    1  A    between atoms: C_2  and  C_3
REMARK    2  A    between atoms: C_2  and  C_4
REMARK    3  A    between atoms: C_3  and  C_5
REMARK    4  A    between atoms: C_4  and  C_6
REMARK    5  A    between atoms: C_5  and  C_7
REMARK    6  A    between atoms: C_6  and  C_8
REMARK    7  A    between atoms: C_7  and  C_9
REMARK                            x       y       z     vdW  Elec       q    Type
REMARK                         _______ _______ _______ _____ _____    ______ ____
ROOT
ATOM      1  C   UNL     1       4.678  -2.385  -1.591  0.00  0.00    +0.000 C 
ATOM      2  H   UNL     1       4.132  -1.574  -2.089  0.00  0.00    +0.000 HD
ATOM      3  H   UNL     1       5.564  -1.939  -1.124  0.00  0.00    +0.000 HD
ENDROOT
BRANCH   1   4
ATOM      4  C   UNL     1       3.794  -3.009  -0.509  0.00  0.00    +0.000 C 
ATOM      5  H   UNL     1       3.001  -3.601  -0.983  0.00  0.00    +0.000 HD
ATOM      6  H   UNL     1       3.298  -2.209   0.054  0.00  0.00    +0.000 HD
BRANCH   4   7
ATOM      7  C   UNL     1       4.566  -3.902   0.464  0.00  0.00    +0.000 C 
ATOM      8  H   UNL     1       3.858  -4.406   1.135  0.00  0.00    +0.000 HD
ATOM      9  H   UNL     1       5.069  -4.694  -0.103  0.00  0.00    +0.000 HD
BRANCH   7  10
ATOM     10  C   UNL     1       5.598  -3.144   1.294  0.00  0.00    +0.000 C 
ATOM     11  H   UNL     1       5.436  -2.063   1.214  0.00  0.00    +0.000 HD
ATOM     12  H   UNL     1       5.519  -3.425   2.349  0.00  0.00    +0.000 HD
BRANCH  10  14
ATOM     13  O   UNL     1       7.388  -4.458   0.309  0.00  0.00    +0.000 OA
ATOM     14  C   UNL     1       7.015  -3.421   0.849  0.00  0.00    +0.000 C 
ATOM     15  H   UNL     1       7.730  -2.603   1.039  0.00  0.00    +0.000 HD
ENDBRANCH  10  14
ENDBRANCH   7  10
ENDBRANCH   4   7
ENDBRANCH   1   4
BRANCH   1  16
ATOM     16  C   UNL     1       5.109  -3.427  -2.625  0.00  0.00    +0.000 C 
ATOM     17  H   UNL     1       4.256  -3.689  -3.263  0.00  0.00    +0.000 HD
ATOM     18  H   UNL     1       5.421  -4.345  -2.111  0.00  0.00    +0.000 HD
BRANCH  16  19
ATOM     19  C   UNL     1       6.258  -2.911  -3.491  0.00  0.00    +0.000 C 
ATOM     20  H   UNL     1       6.488  -3.641  -4.276  0.00  0.00    +0.000 HD
ATOM     21  H   UNL     1       5.961  -1.981  -3.989  0.00  0.00    +0.000 HD
BRANCH  19  22
ATOM     22  C   UNL     1       7.508  -2.656  -2.664  0.00  0.00    +0.000 C 
ATOM     23  H   UNL     1       7.302  -2.777  -1.596  0.00  0.00    +0.000 HD
ATOM     24  H   UNL     1       7.868  -1.635  -2.827  0.00  0.00    +0.000 HD
ATOM     25  H   UNL     1       8.309  -3.347  -2.941  0.00  0.00    +0.000 HD
ENDBRANCH  19  22
ENDBRANCH  16  19
ENDBRANCH   1  16
TORSDOF 7
ENDMDL
MODEL 7
REMARK VINA RESULT:    -3.785     23.226     25.302
REMARK INTER + INTRA:          -5.441
REMARK INTER:                  -5.223
REMARK INTRA:                  -0.218
REMARK UNBOUND:                -0.218
REMARK  Name = 454
REMARK  7 active torsions:
REMARK  status: ('A' for Active; 'I' for Inactive)
REMARK    1  A    between atoms: C_2  and  C_3
REMARK    2  A    between atoms: C_2  and  C_4
REMARK    3  A    between atoms: C_3  and  C_5
REMARK    4  A    between atoms: C_4  and  C_6
REMARK    5  A    between atoms: C_5  and  C_7
REMARK    6  A    between atoms: C_6  and  C_8
REMARK    7  A    between atoms: C_7  and  C_9
REMARK                            x       y       z     vdW  Elec       q    Type
REMARK                         _______ _______ _______ _____ _____    ______ ____
ROOT
ATOM      1  C   UNL     1       6.633  13.092  -1.581  0.00  0.00    +0.000 C 
ATOM      2  H   UNL     1       6.467  14.055  -2.080  0.00  0.00    +0.000 HD
ATOM      3  H   UNL     1       6.263  12.310  -2.255  0.00  0.00    +0.000 HD
ENDROOT
BRANCH   1   4
ATOM      4  C   UNL     1       8.131  12.889  -1.343  0.00  0.00    +0.000 C 
ATOM      5  H   UNL     1       8.303  12.650  -0.286  0.00  0.00    +0.000 HD
ATOM      6  H   UNL     1       8.657  13.830  -1.545  0.00  0.00    +0.000 HD
BRANCH   4   7
ATOM      7  C   UNL     1       8.738  11.782  -2.208  0.00  0.00    +0.000 C 
ATOM      8  H   UNL     1       9.759  11.570  -1.863  0.00  0.00    +0.000 HD
ATOM      9  H   UNL     1       8.165  10.859  -2.057  0.00  0.00    +0.000 HD
BRANCH   7  10
ATOM     10  C   UNL     1       8.765  12.120  -3.695  0.00  0.00    +0.000 C 
ATOM     11  H   UNL     1       8.412  11.269  -4.289  0.00  0.00    +0.000 HD
ATOM     12  H   UNL     1       8.113  12.975  -3.903  0.00  0.00    +0.000 HD
BRANCH  10  14
ATOM     13  O   UNL     1      10.423  12.799  -5.336  0.00  0.00    +0.000 OA
ATOM     14  C   UNL     1      10.150  12.469  -4.185  0.00  0.00    +0.000 C 
ATOM     15  H   UNL     1      10.941  12.415  -3.419  0.00  0.00    +0.000 HD
ENDBRANCH  10  14
ENDBRANCH   7  10
ENDBRANCH   4   7
ENDBRANCH   1   4
BRANCH   1  16
ATOM     16  C   UNL     1       5.852  13.052  -0.266  0.00  0.00    +0.000 C 
ATOM     17  H   UNL     1       4.790  13.241  -0.463  0.00  0.00    +0.000 HD
ATOM     18  H   UNL     1       6.206  13.853   0.395  0.00  0.00    +0.000 HD
BRANCH  16  19
ATOM     19  C   UNL     1       6.013  11.704   0.436  0.00  0.00    +0.000 C 
ATOM     20  H   UNL     1       5.370  10.957  -0.043  0.00  0.00    +0.000 HD
ATOM     21  H   UNL     1       7.047  11.353   0.337  0.00  0.00    +0.000 HD
BRANCH  19  22
ATOM     22  C   UNL     1       5.658  11.797   1.911  0.00  0.00    +0.000 C 
ATOM     23  H   UNL     1       5.920  10.873   2.435  0.00  0.00    +0.000 HD
ATOM     24  H   UNL     1       4.584  11.964   2.033  0.00  0.00    +0.000 HD
ATOM     25  H   UNL     1       6.188  12.626   2.390  0.00  0.00    +0.000 HD
ENDBRANCH  19  22
ENDBRANCH  16  19
ENDBRANCH   1  16
TORSDOF 7
ENDMDL
MODEL 8
REMARK VINA RESULT:    -3.764     23.792     24.583
REMARK INTER + INTRA:          -5.412
REMARK INTER:                  -4.993
REMARK INTRA:                  -0.419
REMARK UNBOUND:                -0.218
REMARK  Name = 454
REMARK  7 active torsions:
REMARK  status: ('A' for Active; 'I' for Inactive)
REMARK    1  A    between atoms: C_2  and  C_3
REMARK    2  A    between atoms: C_2  and  C_4
REMARK    3  A    between atoms: C_3  and  C_5
REMARK    4  A    between atoms: C_4  and  C_6
REMARK    5  A    between atoms: C_5  and  C_7
REMARK    6  A    between atoms: C_6  and  C_8
REMARK    7  A    between atoms: C_7  and  C_9
REMARK                            x       y       z     vdW  Elec       q    Type
REMARK                         _______ _______ _______ _____ _____    ______ ____
ROOT
ATOM      1  C   UNL     1      -6.130  -6.381  -9.842  0.00  0.00    +0.000 C 
ATOM      2  H   UNL     1      -6.401  -5.487 -10.416  0.00  0.00    +0.000 HD
ATOM      3  H   UNL     1      -6.972  -7.080  -9.916  0.00  0.00    +0.000 HD
ENDROOT
BRANCH   1   4
ATOM      4  C   UNL     1      -4.882  -7.024 -10.451  0.00  0.00    +0.000 C 
ATOM      5  H   UNL     1      -4.737  -6.646 -11.471  0.00  0.00    +0.000 HD
ATOM      6  H   UNL     1      -5.041  -8.106 -10.533  0.00  0.00    +0.000 HD
BRANCH   4   7
ATOM      7  C   UNL     1      -3.610  -6.765  -9.641  0.00  0.00    +0.000 C 
ATOM      8  H   UNL     1      -2.941  -6.110 -10.214  0.00  0.00    +0.000 HD
ATOM      9  H   UNL     1      -3.874  -6.214  -8.730  0.00  0.00    +0.000 HD
BRANCH   7  10
ATOM     10  C   UNL     1      -2.865  -8.041  -9.259  0.00  0.00    +0.000 C 
ATOM     11  H   UNL     1      -2.364  -8.470 -10.134  0.00  0.00    +0.000 HD
ATOM     12  H   UNL     1      -2.105  -7.825  -8.501  0.00  0.00    +0.000 HD
BRANCH  10  14
ATOM     13  O   UNL     1      -3.628  -9.663  -7.619  0.00  0.00    +0.000 OA
ATOM     14  C   UNL     1      -3.783  -9.102  -8.700  0.00  0.00    +0.000 C 
ATOM     15  H   UNL     1      -4.644  -9.356  -9.341  0.00  0.00    +0.000 HD
ENDBRANCH  10  14
ENDBRANCH   7  10
ENDBRANCH   4   7
ENDBRANCH   1   4
BRANCH   1  16
ATOM     16  C   UNL     1      -5.902  -6.003  -8.377  0.00  0.00    +0.000 C 
ATOM     17  H   UNL     1      -5.731  -4.923  -8.297  0.00  0.00    +0.000 HD
ATOM     18  H   UNL     1      -4.996  -6.501  -8.008  0.00  0.00    +0.000 HD
BRANCH  16  19
ATOM     19  C   UNL     1      -7.093  -6.402  -7.506  0.00  0.00    +0.000 C 
ATOM     20  H   UNL     1      -7.409  -5.547  -6.897  0.00  0.00    +0.000 HD
ATOM     21  H   UNL     1      -7.942  -6.680  -8.141  0.00  0.00    +0.000 HD
BRANCH  19  22
ATOM     22  C   UNL     1      -6.751  -7.568  -6.593  0.00  0.00    +0.000 C 
ATOM     23  H   UNL     1      -6.634  -7.233  -5.558  0.00  0.00    +0.000 HD
ATOM     24  H   UNL     1      -5.812  -8.035  -6.908  0.00  0.00    +0.000 HD
ATOM     25  H   UNL     1      -7.536  -8.331  -6.621  0.00  0.00    +0.000 HD
ENDBRANCH  19  22
ENDBRANCH  16  19
ENDBRANCH   1  16
TORSDOF 7
ENDMDL
MODEL 9
REMARK VINA RESULT:    -3.757     23.929     25.034
REMARK INTER + INTRA:          -5.402
REMARK INTER:                  -4.937
REMARK INTRA:                  -0.465
REMARK UNBOUND:                -0.218
REMARK  Name = 454
REMARK  7 active torsions:
REMARK  status: ('A' for Active; 'I' for Inactive)
REMARK    1  A    between atoms: C_2  and  C_3
REMARK    2  A    between atoms: C_2  and  C_4
REMARK    3  A    between atoms: C_3  and  C_5
REMARK    4  A    between atoms: C_4  and  C_6
REMARK    5  A    between atoms: C_5  and  C_7
REMARK    6  A    between atoms: C_6  and  C_8
REMARK    7  A    between atoms: C_7  and  C_9
REMARK                            x       y       z     vdW  Elec       q    Type
REMARK                         _______ _______ _______ _____ _____    ______ ____
ROOT
ATOM      1  C   UNL     1      -3.515  -9.236 -10.074  0.00  0.00    +0.000 C 
ATOM      2  H   UNL     1      -4.291  -8.849 -10.746  0.00  0.00    +0.000 HD
ATOM      3  H   UNL     1      -2.771  -9.746 -10.698  0.00  0.00    +0.000 HD
ENDROOT
BRANCH   1   4
ATOM      4  C   UNL     1      -2.847  -8.074  -9.336  0.00  0.00    +0.000 C 
ATOM      5  H   UNL     1      -1.774  -8.066  -9.564  0.00  0.00    +0.000 HD
ATOM      6  H   UNL     1      -2.940  -8.236  -8.255  0.00  0.00    +0.000 HD
BRANCH   4   7
ATOM      7  C   UNL     1      -3.440  -6.709  -9.691  0.00  0.00    +0.000 C 
ATOM      8  H   UNL     1      -3.535  -6.105  -8.779  0.00  0.00    +0.000 HD
ATOM      9  H   UNL     1      -2.737  -6.174 -10.342  0.00  0.00    +0.000 HD
BRANCH   7  10
ATOM     10  C   UNL     1      -4.797  -6.798 -10.384  0.00  0.00    +0.000 C 
ATOM     11  H   UNL     1      -4.822  -6.147 -11.264  0.00  0.00    +0.000 HD
ATOM     12  H   UNL     1      -4.989  -7.825 -10.712  0.00  0.00    +0.000 HD
BRANCH  10  14
ATOM     13  O   UNL     1      -5.802  -5.923  -8.353  0.00  0.00    +0.000 OA
ATOM     14  C   UNL     1      -5.936  -6.383  -9.483  0.00  0.00    +0.000 C 
ATOM     15  H   UNL     1      -6.942  -6.517  -9.915  0.00  0.00    +0.000 HD
ENDBRANCH  10  14
ENDBRANCH   7  10
ENDBRANCH   4   7
ENDBRANCH   1   4
BRANCH   1  16
ATOM     16  C   UNL     1      -4.134 -10.234  -9.093  0.00  0.00    +0.000 C 
ATOM     17  H   UNL     1      -3.732 -11.236  -9.283  0.00  0.00    +0.000 HD
ATOM     18  H   UNL     1      -5.218 -10.285  -9.257  0.00  0.00    +0.000 HD
BRANCH  16  19
ATOM     19  C   UNL     1      -3.857  -9.835  -7.644  0.00  0.00    +0.000 C 
ATOM     20  H   UNL     1      -3.253 -10.609  -7.155  0.00  0.00    +0.000 HD
ATOM     21  H   UNL     1      -3.276  -8.905  -7.618  0.00  0.00    +0.000 HD
BRANCH  19  22
ATOM     22  C   UNL     1      -5.146  -9.639  -6.863  0.00  0.00    +0.000 C 
ATOM     23  H   UNL     1      -5.271 -10.424  -6.111  0.00  0.00    +0.000 HD
ATOM     24  H   UNL     1      -6.007  -9.673  -7.537  0.00  0.00    +0.000 HD
ATOM     25  H   UNL     1      -5.151  -8.671  -6.352  0.00  0.00    +0.000 HD
ENDBRANCH  19  22
ENDBRANCH  16  19
ENDBRANCH   1  16
TORSDOF 7
ENDMDL
MODEL 10
REMARK VINA RESULT:    -3.713     18.191     20.480
REMARK INTER + INTRA:          -5.342
REMARK INTER:                  -5.210
REMARK INTRA:                  -0.133
REMARK UNBOUND:                -0.218
REMARK  Name = 454
REMARK  7 active torsions:
REMARK  status: ('A' for Active; 'I' for Inactive)
REMARK    1  A    between atoms: C_2  and  C_3
REMARK    2  A    between atoms: C_2  and  C_4
REMARK    3  A    between atoms: C_3  and  C_5
REMARK    4  A    between atoms: C_4  and  C_6
REMARK    5  A    between atoms: C_5  and  C_7
REMARK    6  A    between atoms: C_6  and  C_8
REMARK    7  A    between atoms: C_7  and  C_9
REMARK                            x       y       z     vdW  Elec       q    Type
REMARK                         _______ _______ _______ _____ _____    ______ ____
ROOT
ATOM      1  C   UNL     1      12.689 -10.418  -3.217  0.00  0.00    +0.000 C 
ATOM      2  H   UNL     1      12.849 -11.207  -2.471  0.00  0.00    +0.000 HD
ATOM      3  H   UNL     1      12.161 -10.874  -4.063  0.00  0.00    +0.000 HD
ENDROOT
BRANCH   1   4
ATOM      4  C   UNL     1      11.821  -9.311  -2.614  0.00  0.00    +0.000 C 
ATOM      5  H   UNL     1      11.327  -8.755  -3.421  0.00  0.00    +0.000 HD
ATOM      6  H   UNL     1      12.466  -8.597  -2.088  0.00  0.00    +0.000 HD
BRANCH   4   7
ATOM      7  C   UNL     1      10.756  -9.832  -1.647  0.00  0.00    +0.000 C 
ATOM      8  H   UNL     1       9.967 -10.342  -2.215  0.00  0.00    +0.000 HD
ATOM      9  H   UNL     1      11.208 -10.592  -0.998  0.00  0.00    +0.000 HD
BRANCH   7  10
ATOM     10  C   UNL     1      10.135  -8.738  -0.784  0.00  0.00    +0.000 C 
ATOM     11  H   UNL     1      10.789  -8.499   0.062  0.00  0.00    +0.000 HD
ATOM     12  H   UNL     1       9.988  -7.826  -1.372  0.00  0.00    +0.000 HD
BRANCH  10  14
ATOM     13  O   UNL     1       8.059  -9.997  -0.698  0.00  0.00    +0.000 OA
ATOM     14  C   UNL     1       8.794  -9.140  -0.217  0.00  0.00    +0.000 C 
ATOM     15  H   UNL     1       8.496  -8.601   0.699  0.00  0.00    +0.000 HD
ENDBRANCH  10  14
ENDBRANCH   7  10
ENDBRANCH   4   7
ENDBRANCH   1   4
BRANCH   1  16
ATOM     16  C   UNL     1      14.038  -9.872  -3.686  0.00  0.00    +0.000 C 
ATOM     17  H   UNL     1      14.848 -10.498  -3.291  0.00  0.00    +0.000 HD
ATOM     18  H   UNL     1      14.185  -8.862  -3.283  0.00  0.00    +0.000 HD
BRANCH  16  19
ATOM     19  C   UNL     1      14.121  -9.827  -5.212  0.00  0.00    +0.000 C 
ATOM     20  H   UNL     1      14.842 -10.573  -5.566  0.00  0.00    +0.000 HD
ATOM     21  H   UNL     1      13.148 -10.085  -5.645  0.00  0.00    +0.000 HD
BRANCH  19  22
ATOM     22  C   UNL     1      14.538  -8.453  -5.709  0.00  0.00    +0.000 C 
ATOM     23  H   UNL     1      13.684  -7.769  -5.730  0.00  0.00    +0.000 HD
ATOM     24  H   UNL     1      14.943  -8.522  -6.723  0.00  0.00    +0.000 HD
ATOM     25  H   UNL     1      15.309  -8.020  -5.064  0.00  0.00    +0.000 HD
ENDBRANCH  19  22
ENDBRANCH  16  19
ENDBRANCH   1  16
TORSDOF 7
ENDMDL
