MODEL 1
REMARK VINA RESULT:    -4.339      0.000      0.000
REMARK INTER + INTRA:          -5.030
REMARK INTER:                  -4.985
REMARK INTRA:                  -0.045
REMARK UNBOUND:                -0.056
REMARK  Name = 31244
REMARK  3 active torsions:
REMARK  status: ('A' for Active; 'I' for Inactive)
REMARK    1  A    between atoms: O_1  and  C_3
REMARK    2  A    between atoms: O_1  and  C_10
REMARK    3  A    between atoms: C_4  and  C_9
REMARK                            x       y       z     vdW  Elec       q    Type
REMARK                         _______ _______ _______ _____ _____    ______ ____
ROOT
ATOM      1  C   UNL     1       6.711  12.747  -0.016  0.00  0.00    +0.000 A 
ATOM      2  C   UNL     1       6.025  12.624   2.685  0.00  0.00    +0.000 A 
ATOM      3  C   UNL     1       5.936  11.690   0.459  0.00  0.00    +0.000 A 
ATOM      4  C   UNL     1       7.144  13.743   0.858  0.00  0.00    +0.000 A 
ATOM      5  C   UNL     1       5.593  11.628   1.809  0.00  0.00    +0.000 A 
ATOM      6  C   UNL     1       6.802  13.682   2.210  0.00  0.00    +0.000 A 
ATOM      7  H   UNL     1       5.596  10.911  -0.219  0.00  0.00    +0.000 HD
ATOM      8  H   UNL     1       7.749  14.591   0.557  0.00  0.00    +0.000 HD
ATOM      9  H   UNL     1       4.988  10.798   2.164  0.00  0.00    +0.000 HD
ATOM     10  H   UNL     1       7.149  14.468   2.874  0.00  0.00    +0.000 HD
ENDROOT
BRANCH   2  12
ATOM     11  O   UNL     1       4.544  12.242   4.490  0.00  0.00    +0.000 OA
ATOM     12  C   UNL     1       5.668  12.560   4.093  0.00  0.00    +0.000 C 
ATOM     13  H   UNL     1       6.463  12.813   4.817  0.00  0.00    +0.000 HD
ENDBRANCH   2  12
BRANCH   1  14
ATOM     14  O   UNL     1       7.046  12.807  -1.334  0.00  0.00    +0.000 OA
BRANCH  14  15
ATOM     15  C   UNL     1       6.380  13.785  -2.130  0.00  0.00    +0.000 C 
ATOM     16  H   UNL     1       5.911  14.557  -1.510  0.00  0.00    +0.000 HD
ATOM     17  H   UNL     1       5.671  13.324  -2.824  0.00  0.00    +0.000 HD
ATOM     18  H   UNL     1       7.143  14.283  -2.737  0.00  0.00    +0.000 HD
ENDBRANCH  14  15
ENDBRANCH   1  14
TORSDOF 3
ENDMDL
MODEL 2
REMARK VINA RESULT:    -4.250      0.828      4.308
REMARK INTER + INTRA:          -4.927
REMARK INTER:                  -4.886
REMARK INTRA:                  -0.042
REMARK UNBOUND:                -0.056
REMARK  Name = 31244
REMARK  3 active torsions:
REMARK  status: ('A' for Active; 'I' for Inactive)
REMARK    1  A    between atoms: O_1  and  C_3
REMARK    2  A    between atoms: O_1  and  C_10
REMARK    3  A    between atoms: C_4  and  C_9
REMARK                            x       y       z     vdW  Elec       q    Type
REMARK                         _______ _______ _______ _____ _____    ______ ____
ROOT
ATOM      1  C   UNL     1       5.845  12.449   2.834  0.00  0.00    +0.000 A 
ATOM      2  C   UNL     1       6.738  12.757   0.209  0.00  0.00    +0.000 A 
ATOM      3  C   UNL     1       5.508  11.502   1.866  0.00  0.00    +0.000 A 
ATOM      4  C   UNL     1       6.627  13.550   2.489  0.00  0.00    +0.000 A 
ATOM      5  C   UNL     1       5.955  11.656   0.555  0.00  0.00    +0.000 A 
ATOM      6  C   UNL     1       7.074  13.705   1.177  0.00  0.00    +0.000 A 
ATOM      7  H   UNL     1       4.899  10.642   2.130  0.00  0.00    +0.000 HD
ATOM      8  H   UNL     1       6.925  14.322   3.190  0.00  0.00    +0.000 HD
ATOM      9  H   UNL     1       5.685  10.910  -0.188  0.00  0.00    +0.000 HD
ATOM     10  H   UNL     1       7.683  14.571   0.929  0.00  0.00    +0.000 HD
ENDROOT
BRANCH   2  12
ATOM     11  O   UNL     1       8.001  12.145  -1.696  0.00  0.00    +0.000 OA
ATOM     12  C   UNL     1       7.204  12.919  -1.159  0.00  0.00    +0.000 C 
ATOM     13  H   UNL     1       6.807  13.785  -1.717  0.00  0.00    +0.000 HD
ENDBRANCH   2  12
BRANCH   1  14
ATOM     14  O   UNL     1       5.409  12.298   4.115  0.00  0.00    +0.000 OA
BRANCH  14  15
ATOM     15  C   UNL     1       4.176  12.926   4.460  0.00  0.00    +0.000 C 
ATOM     16  H   UNL     1       3.367  12.195   4.563  0.00  0.00    +0.000 HD
ATOM     17  H   UNL     1       3.923  13.728   3.759  0.00  0.00    +0.000 HD
ATOM     18  H   UNL     1       4.314  13.392   5.441  0.00  0.00    +0.000 HD
ENDBRANCH  14  15
ENDBRANCH   1  14
TORSDOF 3
ENDMDL
MODEL 3
REMARK VINA RESULT:    -4.080     23.837     24.768
REMARK INTER + INTRA:          -4.732
REMARK INTER:                  -4.677
REMARK INTRA:                  -0.056
REMARK UNBOUND:                -0.056
REMARK  Name = 31244
REMARK  3 active torsions:
REMARK  status: ('A' for Active; 'I' for Inactive)
REMARK    1  A    between atoms: O_1  and  C_3
REMARK    2  A    between atoms: O_1  and  C_10
REMARK    3  A    between atoms: C_4  and  C_9
REMARK                            x       y       z     vdW  Elec       q    Type
REMARK                         _______ _______ _______ _____ _____    ______ ____
ROOT
ATOM      1  C   UNL     1      10.171 -12.336  -3.214  0.00  0.00    +0.000 A 
ATOM      2  C   UNL     1       9.960 -10.386  -1.231  0.00  0.00    +0.000 A 
ATOM      3  C   UNL     1      11.054 -11.257  -3.200  0.00  0.00    +0.000 A 
ATOM      4  C   UNL     1       9.182 -12.441  -2.236  0.00  0.00    +0.000 A 
ATOM      5  C   UNL     1      10.949 -10.282  -2.209  0.00  0.00    +0.000 A 
ATOM      6  C   UNL     1       9.076 -11.465  -1.244  0.00  0.00    +0.000 A 
ATOM      7  H   UNL     1      11.826 -11.172  -3.960  0.00  0.00    +0.000 HD
ATOM      8  H   UNL     1       8.464 -13.252  -2.188  0.00  0.00    +0.000 HD
ATOM      9  H   UNL     1      11.645  -9.447  -2.211  0.00  0.00    +0.000 HD
ATOM     10  H   UNL     1       8.298 -11.566  -0.492  0.00  0.00    +0.000 HD
ENDROOT
BRANCH   2  12
ATOM     11  O   UNL     1       8.788  -9.098   0.373  0.00  0.00    +0.000 OA
ATOM     12  C   UNL     1       9.850  -9.369  -0.197  0.00  0.00    +0.000 C 
ATOM     13  H   UNL     1      10.777  -8.832   0.070  0.00  0.00    +0.000 HD
ENDBRANCH   2  12
BRANCH   1  14
ATOM     14  O   UNL     1      10.273 -13.289  -4.181  0.00  0.00    +0.000 OA
BRANCH  14  15
ATOM     15  C   UNL     1      11.554 -13.469  -4.782  0.00  0.00    +0.000 C 
ATOM     16  H   UNL     1      12.153 -14.208  -4.239  0.00  0.00    +0.000 HD
ATOM     17  H   UNL     1      12.080 -12.517  -4.903  0.00  0.00    +0.000 HD
ATOM     18  H   UNL     1      11.386 -13.871  -5.787  0.00  0.00    +0.000 HD
ENDBRANCH  14  15
ENDBRANCH   1  14
TORSDOF 3
ENDMDL
MODEL 4
REMARK VINA RESULT:    -3.948      9.673     10.779
REMARK INTER + INTRA:          -4.581
REMARK INTER:                  -4.527
REMARK INTRA:                  -0.054
REMARK UNBOUND:                -0.056
REMARK  Name = 31244
REMARK  3 active torsions:
REMARK  status: ('A' for Active; 'I' for Inactive)
REMARK    1  A    between atoms: O_1  and  C_3
REMARK    2  A    between atoms: O_1  and  C_10
REMARK    3  A    between atoms: C_4  and  C_9
REMARK                            x       y       z     vdW  Elec       q    Type
REMARK                         _______ _______ _______ _____ _____    ______ ____
ROOT
ATOM      1  C   UNL     1      14.772  10.831   4.450  0.00  0.00    +0.000 A 
ATOM      2  C   UNL     1      15.857   9.654   2.166  0.00  0.00    +0.000 A 
ATOM      3  C   UNL     1      14.345  11.238   3.186  0.00  0.00    +0.000 A 
ATOM      4  C   UNL     1      15.741   9.837   4.572  0.00  0.00    +0.000 A 
ATOM      5  C   UNL     1      14.887  10.649   2.044  0.00  0.00    +0.000 A 
ATOM      6  C   UNL     1      16.284   9.248   3.430  0.00  0.00    +0.000 A 
ATOM      7  H   UNL     1      13.589  12.012   3.086  0.00  0.00    +0.000 HD
ATOM      8  H   UNL     1      16.118   9.474   5.522  0.00  0.00    +0.000 HD
ATOM      9  H   UNL     1      14.544  10.977   1.066  0.00  0.00    +0.000 HD
ATOM     10  H   UNL     1      17.039   8.474   3.548  0.00  0.00    +0.000 HD
ENDROOT
BRANCH   2  12
ATOM     11  O   UNL     1      17.574   9.257   0.587  0.00  0.00    +0.000 OA
ATOM     12  C   UNL     1      16.423   9.040   0.975  0.00  0.00    +0.000 C 
ATOM     13  H   UNL     1      15.767   8.352   0.414  0.00  0.00    +0.000 HD
ENDBRANCH   2  12
BRANCH   1  14
ATOM     14  O   UNL     1      14.243  11.405   5.565  0.00  0.00    +0.000 OA
BRANCH  14  15
ATOM     15  C   UNL     1      14.481  10.750   6.809  0.00  0.00    +0.000 C 
ATOM     16  H   UNL     1      15.285  10.011   6.727  0.00  0.00    +0.000 HD
ATOM     17  H   UNL     1      13.562  10.319   7.219  0.00  0.00    +0.000 HD
ATOM     18  H   UNL     1      14.820  11.514   7.517  0.00  0.00    +0.000 HD
ENDBRANCH  14  15
ENDBRANCH   1  14
TORSDOF 3
ENDMDL
MODEL 5
REMARK VINA RESULT:    -3.937      2.650      4.305
REMARK INTER + INTRA:          -4.569
REMARK INTER:                  -4.527
REMARK INTRA:                  -0.042
REMARK UNBOUND:                -0.056
REMARK  Name = 31244
REMARK  3 active torsions:
REMARK  status: ('A' for Active; 'I' for Inactive)
REMARK    1  A    between atoms: O_1  and  C_3
REMARK    2  A    between atoms: O_1  and  C_10
REMARK    3  A    between atoms: C_4  and  C_9
REMARK                            x       y       z     vdW  Elec       q    Type
REMARK                         _______ _______ _______ _____ _____    ______ ____
ROOT
ATOM      1  C   UNL     1       8.448  13.085  -3.518  0.00  0.00    +0.000 A 
ATOM      2  C   UNL     1       6.810  12.828  -1.275  0.00  0.00    +0.000 A 
ATOM      3  C   UNL     1       7.334  13.910  -3.370  0.00  0.00    +0.000 A 
ATOM      4  C   UNL     1       8.744  12.131  -2.545  0.00  0.00    +0.000 A 
ATOM      5  C   UNL     1       6.515  13.782  -2.249  0.00  0.00    +0.000 A 
ATOM      6  C   UNL     1       7.925  12.002  -1.423  0.00  0.00    +0.000 A 
ATOM      7  H   UNL     1       7.099  14.655  -4.125  0.00  0.00    +0.000 HD
ATOM      8  H   UNL     1       9.593  11.458  -2.597  0.00  0.00    +0.000 HD
ATOM      9  H   UNL     1       5.650  14.433  -2.147  0.00  0.00    +0.000 HD
ATOM     10  H   UNL     1       8.173  11.252  -0.676  0.00  0.00    +0.000 HD
ENDROOT
BRANCH   2  12
ATOM     11  O   UNL     1       5.056  11.854  -0.020  0.00  0.00    +0.000 OA
ATOM     12  C   UNL     1       5.957  12.694  -0.105  0.00  0.00    +0.000 C 
ATOM     13  H   UNL     1       6.150  13.389   0.730  0.00  0.00    +0.000 HD
ENDBRANCH   2  12
BRANCH   1  14
ATOM     14  O   UNL     1       9.248  13.210  -4.613  0.00  0.00    +0.000 OA
BRANCH  14  15
ATOM     15  C   UNL     1       9.023  12.301  -5.689  0.00  0.00    +0.000 C 
ATOM     16  H   UNL     1       8.702  11.319  -5.326  0.00  0.00    +0.000 HD
ATOM     17  H   UNL     1       9.894  12.235  -6.348  0.00  0.00    +0.000 HD
ATOM     18  H   UNL     1       8.199  12.705  -6.287  0.00  0.00    +0.000 HD
ENDBRANCH  14  15
ENDBRANCH   1  14
TORSDOF 3
ENDMDL
MODEL 6
REMARK VINA RESULT:    -3.932      9.885     10.227
REMARK INTER + INTRA:          -4.563
REMARK INTER:                  -4.516
REMARK INTRA:                  -0.047
REMARK UNBOUND:                -0.056
REMARK  Name = 31244
REMARK  3 active torsions:
REMARK  status: ('A' for Active; 'I' for Inactive)
REMARK    1  A    between atoms: O_1  and  C_3
REMARK    2  A    between atoms: O_1  and  C_10
REMARK    3  A    between atoms: C_4  and  C_9
REMARK                            x       y       z     vdW  Elec       q    Type
REMARK                         _______ _______ _______ _____ _____    ______ ____
ROOT
ATOM      1  C   UNL     1      16.307   9.303   1.871  0.00  0.00    +0.000 A 
ATOM      2  C   UNL     1      15.051  10.504   4.053  0.00  0.00    +0.000 A 
ATOM      3  C   UNL     1      15.356  10.302   1.665  0.00  0.00    +0.000 A 
ATOM      4  C   UNL     1      16.630   8.904   3.167  0.00  0.00    +0.000 A 
ATOM      5  C   UNL     1      14.728  10.903   2.756  0.00  0.00    +0.000 A 
ATOM      6  C   UNL     1      16.002   9.504   4.259  0.00  0.00    +0.000 A 
ATOM      7  H   UNL     1      15.100  10.617   0.657  0.00  0.00    +0.000 HD
ATOM      8  H   UNL     1      17.359   8.135   3.399  0.00  0.00    +0.000 HD
ATOM      9  H   UNL     1      13.988  11.680   2.580  0.00  0.00    +0.000 HD
ATOM     10  H   UNL     1      16.269   9.179   5.261  0.00  0.00    +0.000 HD
ENDROOT
BRANCH   2  12
ATOM     11  O   UNL     1      13.350  11.778   5.095  0.00  0.00    +0.000 OA
ATOM     12  C   UNL     1      14.396  11.129   5.191  0.00  0.00    +0.000 C 
ATOM     13  H   UNL     1      14.881  10.999   6.174  0.00  0.00    +0.000 HD
ENDBRANCH   2  12
BRANCH   1  14
ATOM     14  O   UNL     1      16.920   8.717   0.806  0.00  0.00    +0.000 OA
BRANCH  14  15
ATOM     15  C   UNL     1      18.298   9.023   0.601  0.00  0.00    +0.000 C 
ATOM     16  H   UNL     1      18.949   8.324   1.136  0.00  0.00    +0.000 HD
ATOM     17  H   UNL     1      18.519  10.067   0.845  0.00  0.00    +0.000 HD
ATOM     18  H   UNL     1      18.502   8.894  -0.468  0.00  0.00    +0.000 HD
ENDBRANCH  14  15
ENDBRANCH   1  14
TORSDOF 3
ENDMDL
MODEL 7
REMARK VINA RESULT:    -3.912     25.731     27.112
REMARK INTER + INTRA:          -4.540
REMARK INTER:                  -4.494
REMARK INTRA:                  -0.046
REMARK UNBOUND:                -0.056
REMARK  Name = 31244
REMARK  3 active torsions:
REMARK  status: ('A' for Active; 'I' for Inactive)
REMARK    1  A    between atoms: O_1  and  C_3
REMARK    2  A    between atoms: O_1  and  C_10
REMARK    3  A    between atoms: C_4  and  C_9
REMARK                            x       y       z     vdW  Elec       q    Type
REMARK                         _______ _______ _______ _____ _____    ______ ____
ROOT
ATOM      1  C   UNL     1      -3.851  -9.744  -8.459  0.00  0.00    +0.000 A 
ATOM      2  C   UNL     1      -3.515  -9.379 -11.204  0.00  0.00    +0.000 A 
ATOM      3  C   UNL     1      -4.295 -10.719  -9.352  0.00  0.00    +0.000 A 
ATOM      4  C   UNL     1      -3.239  -8.586  -8.938  0.00  0.00    +0.000 A 
ATOM      5  C   UNL     1      -4.127 -10.536 -10.724  0.00  0.00    +0.000 A 
ATOM      6  C   UNL     1      -3.071  -8.403 -10.311  0.00  0.00    +0.000 A 
ATOM      7  H   UNL     1      -4.773 -11.622  -8.984  0.00  0.00    +0.000 HD
ATOM      8  H   UNL     1      -2.872  -7.789  -8.301  0.00  0.00    +0.000 HD
ATOM      9  H   UNL     1      -4.478 -11.305 -11.408  0.00  0.00    +0.000 HD
ATOM     10  H   UNL     1      -2.591  -7.494 -10.663  0.00  0.00    +0.000 HD
ENDROOT
BRANCH   2  12
ATOM     11  O   UNL     1      -2.478  -8.445 -13.116  0.00  0.00    +0.000 OA
ATOM     12  C   UNL     1      -3.339  -9.188 -12.635  0.00  0.00    +0.000 C 
ATOM     13  H   UNL     1      -4.022  -9.748 -13.296  0.00  0.00    +0.000 HD
ENDBRANCH   2  12
BRANCH   1  14
ATOM     14  O   UNL     1      -4.016  -9.921  -7.119  0.00  0.00    +0.000 OA
BRANCH  14  15
ATOM     15  C   UNL     1      -5.329  -9.737  -6.596  0.00  0.00    +0.000 C 
ATOM     16  H   UNL     1      -5.497 -10.350  -5.705  0.00  0.00    +0.000 HD
ATOM     17  H   UNL     1      -6.094  -9.899  -7.362  0.00  0.00    +0.000 HD
ATOM     18  H   UNL     1      -5.408  -8.690  -6.282  0.00  0.00    +0.000 HD
ENDBRANCH  14  15
ENDBRANCH   1  14
TORSDOF 3
ENDMDL
MODEL 8
REMARK VINA RESULT:    -3.856      5.923      9.376
REMARK INTER + INTRA:          -4.476
REMARK INTER:                  -4.420
REMARK INTRA:                  -0.056
REMARK UNBOUND:                -0.056
REMARK  Name = 31244
REMARK  3 active torsions:
REMARK  status: ('A' for Active; 'I' for Inactive)
REMARK    1  A    between atoms: O_1  and  C_3
REMARK    2  A    between atoms: O_1  and  C_10
REMARK    3  A    between atoms: C_4  and  C_9
REMARK                            x       y       z     vdW  Elec       q    Type
REMARK                         _______ _______ _______ _____ _____    ______ ____
ROOT
ATOM      1  C   UNL     1       9.989  12.698  -4.704  0.00  0.00    +0.000 A 
ATOM      2  C   UNL     1      10.214  13.549  -7.351  0.00  0.00    +0.000 A 
ATOM      3  C   UNL     1       9.074  12.256  -5.660  0.00  0.00    +0.000 A 
ATOM      4  C   UNL     1      11.017  13.566  -5.072  0.00  0.00    +0.000 A 
ATOM      5  C   UNL     1       9.187  12.682  -6.983  0.00  0.00    +0.000 A 
ATOM      6  C   UNL     1      11.130  13.992  -6.396  0.00  0.00    +0.000 A 
ATOM      7  H   UNL     1       8.272  11.580  -5.378  0.00  0.00    +0.000 HD
ATOM      8  H   UNL     1      11.761  13.948  -4.382  0.00  0.00    +0.000 HD
ATOM      9  H   UNL     1       8.466  12.328  -7.716  0.00  0.00    +0.000 HD
ATOM     10  H   UNL     1      11.938  14.669  -6.661  0.00  0.00    +0.000 HD
ENDROOT
BRANCH   2  12
ATOM     11  O   UNL     1      11.175  14.814  -9.106  0.00  0.00    +0.000 OA
ATOM     12  C   UNL     1      10.332  13.994  -8.731  0.00  0.00    +0.000 C 
ATOM     13  H   UNL     1       9.621  13.557  -9.454  0.00  0.00    +0.000 HD
ENDBRANCH   2  12
BRANCH   1  14
ATOM     14  O   UNL     1       9.880  12.283  -3.413  0.00  0.00    +0.000 OA
BRANCH  14  15
ATOM     15  C   UNL     1       8.576  11.934  -2.950  0.00  0.00    +0.000 C 
ATOM     16  H   UNL     1       8.569  11.747  -1.872  0.00  0.00    +0.000 HD
ATOM     17  H   UNL     1       8.158  11.098  -3.520  0.00  0.00    +0.000 HD
ATOM     18  H   UNL     1       7.928  12.799  -3.129  0.00  0.00    +0.000 HD
ENDBRANCH  14  15
ENDBRANCH   1  14
TORSDOF 3
ENDMDL
MODEL 9
REMARK VINA RESULT:    -3.829      1.741      4.454
REMARK INTER + INTRA:          -4.445
REMARK INTER:                  -4.398
REMARK INTRA:                  -0.047
REMARK UNBOUND:                -0.056
REMARK  Name = 31244
REMARK  3 active torsions:
REMARK  status: ('A' for Active; 'I' for Inactive)
REMARK    1  A    between atoms: O_1  and  C_3
REMARK    2  A    between atoms: O_1  and  C_10
REMARK    3  A    between atoms: C_4  and  C_9
REMARK                            x       y       z     vdW  Elec       q    Type
REMARK                         _______ _______ _______ _____ _____    ______ ____
ROOT
ATOM      1  C   UNL     1       6.217  13.590   4.418  0.00  0.00    +0.000 A 
ATOM      2  C   UNL     1       6.147  12.605   1.810  0.00  0.00    +0.000 A 
ATOM      3  C   UNL     1       5.474  12.447   4.124  0.00  0.00    +0.000 A 
ATOM      4  C   UNL     1       6.925  14.241   3.409  0.00  0.00    +0.000 A 
ATOM      5  C   UNL     1       5.439  11.955   2.820  0.00  0.00    +0.000 A 
ATOM      6  C   UNL     1       6.891  13.749   2.104  0.00  0.00    +0.000 A 
ATOM      7  H   UNL     1       4.921  11.936   4.907  0.00  0.00    +0.000 HD
ATOM      8  H   UNL     1       7.521  15.133   3.568  0.00  0.00    +0.000 HD
ATOM      9  H   UNL     1       4.856  11.063   2.606  0.00  0.00    +0.000 HD
ATOM     10  H   UNL     1       7.449  14.271   1.332  0.00  0.00    +0.000 HD
ENDROOT
BRANCH   2  12
ATOM     11  O   UNL     1       5.061  11.883  -0.165  0.00  0.00    +0.000 OA
ATOM     12  C   UNL     1       6.111  12.092   0.449  0.00  0.00    +0.000 C 
ATOM     13  H   UNL     1       7.086  11.891  -0.029  0.00  0.00    +0.000 HD
ENDBRANCH   2  12
BRANCH   1  14
ATOM     14  O   UNL     1       6.251  14.071   5.691  0.00  0.00    +0.000 OA
BRANCH  14  15
ATOM     15  C   UNL     1       5.777  15.401   5.897  0.00  0.00    +0.000 C 
ATOM     16  H   UNL     1       6.539  16.031   6.365  0.00  0.00    +0.000 HD
ATOM     17  H   UNL     1       4.833  15.410   6.450  0.00  0.00    +0.000 HD
ATOM     18  H   UNL     1       5.573  15.827   4.909  0.00  0.00    +0.000 HD
ENDBRANCH  14  15
ENDBRANCH   1  14
TORSDOF 3
ENDMDL
MODEL 10
REMARK VINA RESULT:    -3.751      5.122      7.463
REMARK INTER + INTRA:          -4.355
REMARK INTER:                  -4.309
REMARK INTRA:                  -0.047
REMARK UNBOUND:                -0.056
REMARK  Name = 31244
REMARK  3 active torsions:
REMARK  status: ('A' for Active; 'I' for Inactive)
REMARK    1  A    between atoms: O_1  and  C_3
REMARK    2  A    between atoms: O_1  and  C_10
REMARK    3  A    between atoms: C_4  and  C_9
REMARK                            x       y       z     vdW  Elec       q    Type
REMARK                         _______ _______ _______ _____ _____    ______ ____
ROOT
ATOM      1  C   UNL     1       9.338  13.067  -6.761  0.00  0.00    +0.000 A 
ATOM      2  C   UNL     1       8.810  12.655  -4.053  0.00  0.00    +0.000 A 
ATOM      3  C   UNL     1      10.365  12.679  -5.901  0.00  0.00    +0.000 A 
ATOM      4  C   UNL     1       8.046  13.249  -6.267  0.00  0.00    +0.000 A 
ATOM      5  C   UNL     1      10.102  12.473  -4.547  0.00  0.00    +0.000 A 
ATOM      6  C   UNL     1       7.782  13.043  -4.912  0.00  0.00    +0.000 A 
ATOM      7  H   UNL     1      11.373  12.537  -6.281  0.00  0.00    +0.000 HD
ATOM      8  H   UNL     1       7.202  13.548  -6.878  0.00  0.00    +0.000 HD
ATOM      9  H   UNL     1      10.913  12.172  -3.890  0.00  0.00    +0.000 HD
ATOM     10  H   UNL     1       6.769  13.189  -4.548  0.00  0.00    +0.000 HD
ENDROOT
BRANCH   2  12
ATOM     11  O   UNL     1       8.762  11.373  -2.064  0.00  0.00    +0.000 OA
ATOM     12  C   UNL     1       8.535  12.440  -2.641  0.00  0.00    +0.000 C 
ATOM     13  H   UNL     1       8.103  13.292  -2.086  0.00  0.00    +0.000 HD
ENDBRANCH   2  12
BRANCH   1  14
ATOM     14  O   UNL     1       9.594  13.268  -8.082  0.00  0.00    +0.000 OA
BRANCH  14  15
ATOM     15  C   UNL     1      10.615  14.209  -8.410  0.00  0.00    +0.000 C 
ATOM     16  H   UNL     1      11.088  14.619  -7.512  0.00  0.00    +0.000 HD
ATOM     17  H   UNL     1      10.241  14.993  -9.076  0.00  0.00    +0.000 HD
ATOM     18  H   UNL     1      11.391  13.665  -8.960  0.00  0.00    +0.000 HD
ENDBRANCH  14  15
ENDBRANCH   1  14
TORSDOF 3
ENDMDL
