MODEL 1
REMARK VINA RESULT:    -3.462      0.000      0.000
REMARK INTER + INTRA:          -4.225
REMARK INTER:                  -4.215
REMARK INTRA:                  -0.010
REMARK UNBOUND:                -0.055
REMARK  Name = 8063
REMARK  4 active torsions:
REMARK  status: ('A' for Active; 'I' for Inactive)
REMARK    1  A    between atoms: C_2  and  C_3
REMARK    2  A    between atoms: C_2  and  C_4
REMARK    3  A    between atoms: C_3  and  C_5
REMARK    4  A    between atoms: C_4  and  C_6
REMARK                            x       y       z     vdW  Elec       q    Type
REMARK                         _______ _______ _______ _____ _____    ______ ____
ROOT
ATOM      1  C   UNL     1       1.797  -4.342  14.963  0.00  0.00    +0.000 C 
ATOM      2  H   UNL     1       2.584  -5.106  14.932  0.00  0.00    +0.000 HD
ATOM      3  H   UNL     1       1.453  -4.204  13.930  0.00  0.00    +0.000 HD
ENDROOT
BRANCH   1   4
ATOM      4  C   UNL     1       2.368  -3.029  15.493  0.00  0.00    +0.000 C 
ATOM      5  H   UNL     1       1.618  -2.234  15.407  0.00  0.00    +0.000 HD
ATOM      6  H   UNL     1       2.611  -3.131  16.557  0.00  0.00    +0.000 HD
BRANCH   4   7
ATOM      7  C   UNL     1       3.618  -2.616  14.731  0.00  0.00    +0.000 C 
ATOM      8  H   UNL     1       3.513  -1.593  14.356  0.00  0.00    +0.000 HD
ATOM      9  H   UNL     1       3.791  -3.277  13.875  0.00  0.00    +0.000 HD
ATOM     10  H   UNL     1       4.501  -2.653  15.377  0.00  0.00    +0.000 HD
ENDBRANCH   4   7
ENDBRANCH   1   4
BRANCH   1  11
ATOM     11  C   UNL     1       0.639  -4.832  15.826  0.00  0.00    +0.000 C 
ATOM     12  H   UNL     1      -0.236  -4.185  15.700  0.00  0.00    +0.000 HD
ATOM     13  H   UNL     1       0.921  -4.822  16.884  0.00  0.00    +0.000 HD
BRANCH  11  15
ATOM     14  O   UNL     1      -0.816  -6.775  15.883  0.00  0.00    +0.000 OA
ATOM     15  C   UNL     1       0.212  -6.239  15.483  0.00  0.00    +0.000 C 
ATOM     16  H   UNL     1       0.910  -6.790  14.829  0.00  0.00    +0.000 HD
ENDBRANCH  11  15
ENDBRANCH   1  11
TORSDOF 4
ENDMDL
MODEL 2
REMARK VINA RESULT:    -3.459     15.497     16.247
REMARK INTER + INTRA:          -4.222
REMARK INTER:                  -4.156
REMARK INTRA:                  -0.066
REMARK UNBOUND:                -0.055
REMARK  Name = 8063
REMARK  4 active torsions:
REMARK  status: ('A' for Active; 'I' for Inactive)
REMARK    1  A    between atoms: C_2  and  C_3
REMARK    2  A    between atoms: C_2  and  C_4
REMARK    3  A    between atoms: C_3  and  C_5
REMARK    4  A    between atoms: C_4  and  C_6
REMARK                            x       y       z     vdW  Elec       q    Type
REMARK                         _______ _______ _______ _____ _____    ______ ____
ROOT
ATOM      1  C   UNL     1       4.222  -2.570  -1.554  0.00  0.00    +0.000 C 
ATOM      2  H   UNL     1       4.559  -1.617  -1.980  0.00  0.00    +0.000 HD
ATOM      3  H   UNL     1       4.223  -3.300  -2.375  0.00  0.00    +0.000 HD
ENDROOT
BRANCH   1   4
ATOM      4  C   UNL     1       2.804  -2.420  -1.005  0.00  0.00    +0.000 C 
ATOM      5  H   UNL     1       2.103  -2.998  -1.618  0.00  0.00    +0.000 HD
ATOM      6  H   UNL     1       2.755  -2.827   0.012  0.00  0.00    +0.000 HD
BRANCH   4   7
ATOM      7  C   UNL     1       2.365  -0.965  -0.986  0.00  0.00    +0.000 C 
ATOM      8  H   UNL     1       1.272  -0.899  -1.004  0.00  0.00    +0.000 HD
ATOM      9  H   UNL     1       2.753  -0.426  -1.856  0.00  0.00    +0.000 HD
ATOM     10  H   UNL     1       2.720  -0.460  -0.082  0.00  0.00    +0.000 HD
ENDBRANCH   4   7
ENDBRANCH   1   4
BRANCH   1  11
ATOM     11  C   UNL     1       5.193  -3.021  -0.468  0.00  0.00    +0.000 C 
ATOM     12  H   UNL     1       5.886  -2.213  -0.211  0.00  0.00    +0.000 HD
ATOM     13  H   UNL     1       5.782  -3.877  -0.815  0.00  0.00    +0.000 HD
BRANCH  11  15
ATOM     14  O   UNL     1       4.504  -4.571   1.269  0.00  0.00    +0.000 OA
ATOM     15  C   UNL     1       4.493  -3.436   0.803  0.00  0.00    +0.000 C 
ATOM     16  H   UNL     1       3.938  -2.630   1.313  0.00  0.00    +0.000 HD
ENDBRANCH  11  15
ENDBRANCH   1  11
TORSDOF 4
ENDMDL
MODEL 3
REMARK VINA RESULT:    -3.441      2.913      4.332
REMARK INTER + INTRA:          -4.200
REMARK INTER:                  -4.191
REMARK INTRA:                  -0.010
REMARK UNBOUND:                -0.055
REMARK  Name = 8063
REMARK  4 active torsions:
REMARK  status: ('A' for Active; 'I' for Inactive)
REMARK    1  A    between atoms: C_2  and  C_3
REMARK    2  A    between atoms: C_2  and  C_4
REMARK    3  A    between atoms: C_3  and  C_5
REMARK    4  A    between atoms: C_4  and  C_6
REMARK                            x       y       z     vdW  Elec       q    Type
REMARK                         _______ _______ _______ _____ _____    ______ ____
ROOT
ATOM      1  C   UNL     1       1.901  -4.641  15.992  0.00  0.00    +0.000 C 
ATOM      2  H   UNL     1       2.432  -5.600  16.052  0.00  0.00    +0.000 HD
ATOM      3  H   UNL     1       2.148  -4.088  16.908  0.00  0.00    +0.000 HD
ENDROOT
BRANCH   1   4
ATOM      4  C   UNL     1       0.394  -4.885  15.932  0.00  0.00    +0.000 C 
ATOM      5  H   UNL     1      -0.137  -4.063  16.427  0.00  0.00    +0.000 HD
ATOM      6  H   UNL     1       0.063  -4.904  14.888  0.00  0.00    +0.000 HD
BRANCH   4   7
ATOM      7  C   UNL     1       0.014  -6.196  16.603  0.00  0.00    +0.000 C 
ATOM      8  H   UNL     1       0.796  -6.502  17.306  0.00  0.00    +0.000 HD
ATOM      9  H   UNL     1      -0.110  -6.993  15.864  0.00  0.00    +0.000 HD
ATOM     10  H   UNL     1      -0.922  -6.094  17.160  0.00  0.00    +0.000 HD
ENDBRANCH   4   7
ENDBRANCH   1   4
BRANCH   1  11
ATOM     11  C   UNL     1       2.386  -3.858  14.776  0.00  0.00    +0.000 C 
ATOM     12  H   UNL     1       1.537  -3.461  14.210  0.00  0.00    +0.000 HD
ATOM     13  H   UNL     1       2.965  -4.508  14.112  0.00  0.00    +0.000 HD
BRANCH  11  15
ATOM     14  O   UNL     1       4.112  -2.190  14.416  0.00  0.00    +0.000 OA
ATOM     15  C   UNL     1       3.266  -2.690  15.150  0.00  0.00    +0.000 C 
ATOM     16  H   UNL     1       3.106  -2.294  16.168  0.00  0.00    +0.000 HD
ENDBRANCH  11  15
ENDBRANCH   1  11
TORSDOF 4
ENDMDL
MODEL 4
REMARK VINA RESULT:    -3.231     19.607     20.303
REMARK INTER + INTRA:          -3.947
REMARK INTER:                  -3.937
REMARK INTRA:                  -0.009
REMARK UNBOUND:                -0.055
REMARK  Name = 8063
REMARK  4 active torsions:
REMARK  status: ('A' for Active; 'I' for Inactive)
REMARK    1  A    between atoms: C_2  and  C_3
REMARK    2  A    between atoms: C_2  and  C_4
REMARK    3  A    between atoms: C_3  and  C_5
REMARK    4  A    between atoms: C_4  and  C_6
REMARK                            x       y       z     vdW  Elec       q    Type
REMARK                         _______ _______ _______ _____ _____    ______ ____
ROOT
ATOM      1  C   UNL     1      11.136  -9.931  -2.059  0.00  0.00    +0.000 C 
ATOM      2  H   UNL     1      11.771 -10.561  -1.423  0.00  0.00    +0.000 HD
ATOM      3  H   UNL     1      10.283 -10.552  -2.364  0.00  0.00    +0.000 HD
ENDROOT
BRANCH   1   4
ATOM      4  C   UNL     1      11.915  -9.488  -3.295  0.00  0.00    +0.000 C 
ATOM      5  H   UNL     1      11.485  -9.949  -4.192  0.00  0.00    +0.000 HD
ATOM      6  H   UNL     1      11.832  -8.402  -3.417  0.00  0.00    +0.000 HD
BRANCH   4   7
ATOM      7  C   UNL     1      13.383  -9.871  -3.196  0.00  0.00    +0.000 C 
ATOM      8  H   UNL     1      14.015  -8.985  -3.318  0.00  0.00    +0.000 HD
ATOM      9  H   UNL     1      13.654 -10.593  -3.974  0.00  0.00    +0.000 HD
ATOM     10  H   UNL     1      13.608 -10.316  -2.221  0.00  0.00    +0.000 HD
ENDBRANCH   4   7
ENDBRANCH   1   4
BRANCH   1  11
ATOM     11  C   UNL     1      10.634  -8.732  -1.259  0.00  0.00    +0.000 C 
ATOM     12  H   UNL     1      10.352  -7.913  -1.929  0.00  0.00    +0.000 HD
ATOM     13  H   UNL     1      11.418  -8.369  -0.587  0.00  0.00    +0.000 HD
BRANCH  11  15
ATOM     14  O   UNL     1       8.311  -8.577  -0.572  0.00  0.00    +0.000 OA
ATOM     15  C   UNL     1       9.427  -9.061  -0.414  0.00  0.00    +0.000 C 
ATOM     16  H   UNL     1       9.610  -9.787   0.396  0.00  0.00    +0.000 HD
ENDBRANCH  11  15
ENDBRANCH   1  11
TORSDOF 4
ENDMDL
MODEL 5
REMARK VINA RESULT:    -3.156     19.632     20.333
REMARK INTER + INTRA:          -3.857
REMARK INTER:                  -3.828
REMARK INTRA:                  -0.029
REMARK UNBOUND:                -0.055
REMARK  Name = 8063
REMARK  4 active torsions:
REMARK  status: ('A' for Active; 'I' for Inactive)
REMARK    1  A    between atoms: C_2  and  C_3
REMARK    2  A    between atoms: C_2  and  C_4
REMARK    3  A    between atoms: C_3  and  C_5
REMARK    4  A    between atoms: C_4  and  C_6
REMARK                            x       y       z     vdW  Elec       q    Type
REMARK                         _______ _______ _______ _____ _____    ______ ____
ROOT
ATOM      1  C   UNL     1      10.320 -10.004  -0.492  0.00  0.00    +0.000 C 
ATOM      2  H   UNL     1      11.150 -10.579  -0.062  0.00  0.00    +0.000 HD
ATOM      3  H   UNL     1       9.807  -9.518   0.348  0.00  0.00    +0.000 HD
ENDROOT
BRANCH   1   4
ATOM      4  C   UNL     1       9.353 -10.944  -1.208  0.00  0.00    +0.000 C 
ATOM      5  H   UNL     1       9.251 -10.646  -2.258  0.00  0.00    +0.000 HD
ATOM      6  H   UNL     1       9.751 -11.965  -1.198  0.00  0.00    +0.000 HD
BRANCH   4   7
ATOM      7  C   UNL     1       7.980 -10.935  -0.555  0.00  0.00    +0.000 C 
ATOM      8  H   UNL     1       8.045 -10.526   0.459  0.00  0.00    +0.000 HD
ATOM      9  H   UNL     1       7.571 -11.948  -0.487  0.00  0.00    +0.000 HD
ATOM     10  H   UNL     1       7.278 -10.318  -1.125  0.00  0.00    +0.000 HD
ENDBRANCH   4   7
ENDBRANCH   1   4
BRANCH   1  11
ATOM     11  C   UNL     1      10.867  -8.942  -1.440  0.00  0.00    +0.000 C 
ATOM     12  H   UNL     1      11.505  -8.235  -0.900  0.00  0.00    +0.000 HD
ATOM     13  H   UNL     1      10.046  -8.380  -1.897  0.00  0.00    +0.000 HD
BRANCH  11  15
ATOM     14  O   UNL     1      12.917  -9.585  -2.571  0.00  0.00    +0.000 OA
ATOM     15  C   UNL     1      11.691  -9.531  -2.560  0.00  0.00    +0.000 C 
ATOM     16  H   UNL     1      11.108  -9.922  -3.411  0.00  0.00    +0.000 HD
ENDBRANCH  11  15
ENDBRANCH   1  11
TORSDOF 4
ENDMDL
MODEL 6
REMARK VINA RESULT:    -3.130     16.391     16.911
REMARK INTER + INTRA:          -3.825
REMARK INTER:                  -3.756
REMARK INTRA:                  -0.069
REMARK UNBOUND:                -0.055
REMARK  Name = 8063
REMARK  4 active torsions:
REMARK  status: ('A' for Active; 'I' for Inactive)
REMARK    1  A    between atoms: C_2  and  C_3
REMARK    2  A    between atoms: C_2  and  C_4
REMARK    3  A    between atoms: C_3  and  C_5
REMARK    4  A    between atoms: C_4  and  C_6
REMARK                            x       y       z     vdW  Elec       q    Type
REMARK                         _______ _______ _______ _____ _____    ______ ____
ROOT
ATOM      1  C   UNL     1       2.764 -11.188   1.052  0.00  0.00    +0.000 C 
ATOM      2  H   UNL     1       2.627 -10.150   1.381  0.00  0.00    +0.000 HD
ATOM      3  H   UNL     1       1.759 -11.620   0.948  0.00  0.00    +0.000 HD
ENDROOT
BRANCH   1   4
ATOM      4  C   UNL     1       3.550 -11.967   2.105  0.00  0.00    +0.000 C 
ATOM      5  H   UNL     1       4.190 -12.711   1.618  0.00  0.00    +0.000 HD
ATOM      6  H   UNL     1       4.207 -11.285   2.657  0.00  0.00    +0.000 HD
BRANCH   4   7
ATOM      7  C   UNL     1       2.624 -12.672   3.083  0.00  0.00    +0.000 C 
ATOM      8  H   UNL     1       2.902 -13.727   3.175  0.00  0.00    +0.000 HD
ATOM      9  H   UNL     1       1.584 -12.623   2.744  0.00  0.00    +0.000 HD
ATOM     10  H   UNL     1       2.683 -12.218   4.077  0.00  0.00    +0.000 HD
ENDBRANCH   4   7
ENDBRANCH   1   4
BRANCH   1  11
ATOM     11  C   UNL     1       3.472 -11.211  -0.299  0.00  0.00    +0.000 C 
ATOM     12  H   UNL     1       3.870 -10.220  -0.542  0.00  0.00    +0.000 HD
ATOM     13  H   UNL     1       2.773 -11.502  -1.090  0.00  0.00    +0.000 HD
BRANCH  11  15
ATOM     14  O   UNL     1       4.798 -13.033  -1.201  0.00  0.00    +0.000 OA
ATOM     15  C   UNL     1       4.626 -12.183  -0.334  0.00  0.00    +0.000 C 
ATOM     16  H   UNL     1       5.338 -12.089   0.504  0.00  0.00    +0.000 HD
ENDBRANCH  11  15
ENDBRANCH   1  11
TORSDOF 4
ENDMDL
MODEL 7
REMARK VINA RESULT:    -2.978     18.472     18.951
REMARK INTER + INTRA:          -3.642
REMARK INTER:                  -3.630
REMARK INTRA:                  -0.012
REMARK UNBOUND:                -0.055
REMARK  Name = 8063
REMARK  4 active torsions:
REMARK  status: ('A' for Active; 'I' for Inactive)
REMARK    1  A    between atoms: C_2  and  C_3
REMARK    2  A    between atoms: C_2  and  C_4
REMARK    3  A    between atoms: C_3  and  C_5
REMARK    4  A    between atoms: C_4  and  C_6
REMARK                            x       y       z     vdW  Elec       q    Type
REMARK                         _______ _______ _______ _____ _____    ______ ____
ROOT
ATOM      1  C   UNL     1     -13.855 -15.008   9.021  0.00  0.00    +0.000 C 
ATOM      2  H   UNL     1     -14.458 -14.588   8.206  0.00  0.00    +0.000 HD
ATOM      3  H   UNL     1     -14.096 -16.078   9.070  0.00  0.00    +0.000 HD
ENDROOT
BRANCH   1   4
ATOM      4  C   UNL     1     -14.230 -14.338  10.341  0.00  0.00    +0.000 C 
ATOM      5  H   UNL     1     -15.079 -14.861  10.798  0.00  0.00    +0.000 HD
ATOM      6  H   UNL     1     -13.391 -14.407  11.044  0.00  0.00    +0.000 HD
BRANCH   4   7
ATOM      7  C   UNL     1     -14.598 -12.876  10.141  0.00  0.00    +0.000 C 
ATOM      8  H   UNL     1     -15.619 -12.691  10.489  0.00  0.00    +0.000 HD
ATOM      9  H   UNL     1     -14.544 -12.600   9.083  0.00  0.00    +0.000 HD
ATOM     10  H   UNL     1     -13.924 -12.221  10.702  0.00  0.00    +0.000 HD
ENDBRANCH   4   7
ENDBRANCH   1   4
BRANCH   1  11
ATOM     11  C   UNL     1     -12.373 -14.831   8.710  0.00  0.00    +0.000 C 
ATOM     12  H   UNL     1     -11.764 -15.463   9.364  0.00  0.00    +0.000 HD
ATOM     13  H   UNL     1     -12.072 -13.790   8.865  0.00  0.00    +0.000 HD
BRANCH  11  15
ATOM     14  O   UNL     1     -11.197 -14.616   6.597  0.00  0.00    +0.000 OA
ATOM     15  C   UNL     1     -12.031 -15.195   7.285  0.00  0.00    +0.000 C 
ATOM     16  H   UNL     1     -12.601 -16.045   6.872  0.00  0.00    +0.000 HD
ENDBRANCH  11  15
ENDBRANCH   1  11
TORSDOF 4
ENDMDL
MODEL 8
REMARK VINA RESULT:    -2.975     16.740     17.452
REMARK INTER + INTRA:          -3.639
REMARK INTER:                  -3.601
REMARK INTRA:                  -0.038
REMARK UNBOUND:                -0.055
REMARK  Name = 8063
REMARK  4 active torsions:
REMARK  status: ('A' for Active; 'I' for Inactive)
REMARK    1  A    between atoms: C_2  and  C_3
REMARK    2  A    between atoms: C_2  and  C_4
REMARK    3  A    between atoms: C_3  and  C_5
REMARK    4  A    between atoms: C_4  and  C_6
REMARK                            x       y       z     vdW  Elec       q    Type
REMARK                         _______ _______ _______ _____ _____    ______ ____
ROOT
ATOM      1  C   UNL     1       6.323  -3.199  -1.712  0.00  0.00    +0.000 C 
ATOM      2  H   UNL     1       7.106  -2.735  -2.326  0.00  0.00    +0.000 HD
ATOM      3  H   UNL     1       6.569  -4.267  -1.646  0.00  0.00    +0.000 HD
ENDROOT
BRANCH   1   4
ATOM      4  C   UNL     1       4.964  -3.026  -2.387  0.00  0.00    +0.000 C 
ATOM      5  H   UNL     1       5.055  -2.346  -3.242  0.00  0.00    +0.000 HD
ATOM      6  H   UNL     1       4.617  -3.991  -2.775  0.00  0.00    +0.000 HD
BRANCH   4   7
ATOM      7  C   UNL     1       3.928  -2.473  -1.421  0.00  0.00    +0.000 C 
ATOM      8  H   UNL     1       3.464  -3.287  -0.855  0.00  0.00    +0.000 HD
ATOM      9  H   UNL     1       3.138  -1.937  -1.957  0.00  0.00    +0.000 HD
ATOM     10  H   UNL     1       4.388  -1.782  -0.706  0.00  0.00    +0.000 HD
ENDBRANCH   4   7
ENDBRANCH   1   4
BRANCH   1  11
ATOM     11  C   UNL     1       6.333  -2.586  -0.316  0.00  0.00    +0.000 C 
ATOM     12  H   UNL     1       6.314  -3.369   0.449  0.00  0.00    +0.000 HD
ATOM     13  H   UNL     1       5.453  -1.949  -0.174  0.00  0.00    +0.000 HD
BRANCH  11  15
ATOM     14  O   UNL     1       8.042  -1.525   1.044  0.00  0.00    +0.000 OA
ATOM     15  C   UNL     1       7.554  -1.736  -0.062  0.00  0.00    +0.000 C 
ATOM     16  H   UNL     1       8.003  -1.286  -0.964  0.00  0.00    +0.000 HD
ENDBRANCH  11  15
ENDBRANCH   1  11
TORSDOF 4
ENDMDL
MODEL 9
REMARK VINA RESULT:    -2.971     15.514     16.011
REMARK INTER + INTRA:          -3.634
REMARK INTER:                  -3.579
REMARK INTRA:                  -0.055
REMARK UNBOUND:                -0.055
REMARK  Name = 8063
REMARK  4 active torsions:
REMARK  status: ('A' for Active; 'I' for Inactive)
REMARK    1  A    between atoms: C_2  and  C_3
REMARK    2  A    between atoms: C_2  and  C_4
REMARK    3  A    between atoms: C_3  and  C_5
REMARK    4  A    between atoms: C_4  and  C_6
REMARK                            x       y       z     vdW  Elec       q    Type
REMARK                         _______ _______ _______ _____ _____    ______ ____
ROOT
ATOM      1  C   UNL     1      -0.637  11.633  11.381  0.00  0.00    +0.000 C 
ATOM      2  H   UNL     1      -0.208  12.144  10.510  0.00  0.00    +0.000 HD
ATOM      3  H   UNL     1      -0.459  12.286  12.247  0.00  0.00    +0.000 HD
ENDROOT
BRANCH   1   4
ATOM      4  C   UNL     1       0.065  10.294  11.596  0.00  0.00    +0.000 C 
ATOM      5  H   UNL     1      -0.231   9.869  12.562  0.00  0.00    +0.000 HD
ATOM      6  H   UNL     1      -0.245   9.584  10.821  0.00  0.00    +0.000 HD
BRANCH   4   7
ATOM      7  C   UNL     1       1.578  10.446  11.563  0.00  0.00    +0.000 C 
ATOM      8  H   UNL     1       1.866  11.211  10.835  0.00  0.00    +0.000 HD
ATOM      9  H   UNL     1       2.060   9.505  11.276  0.00  0.00    +0.000 HD
ATOM     10  H   UNL     1       1.964  10.746  12.542  0.00  0.00    +0.000 HD
ENDBRANCH   4   7
ENDBRANCH   1   4
BRANCH   1  11
ATOM     11  C   UNL     1      -2.138  11.448  11.181  0.00  0.00    +0.000 C 
ATOM     12  H   UNL     1      -2.406  11.584  10.128  0.00  0.00    +0.000 HD
ATOM     13  H   UNL     1      -2.695  12.182  11.772  0.00  0.00    +0.000 HD
BRANCH  11  15
ATOM     14  O   UNL     1      -3.617   9.859  12.267  0.00  0.00    +0.000 OA
ATOM     15  C   UNL     1      -2.615  10.077  11.595  0.00  0.00    +0.000 C 
ATOM     16  H   UNL     1      -1.981   9.241  11.252  0.00  0.00    +0.000 HD
ENDBRANCH  11  15
ENDBRANCH   1  11
TORSDOF 4
ENDMDL
MODEL 10
REMARK VINA RESULT:    -2.880     16.386     17.229
REMARK INTER + INTRA:          -3.524
REMARK INTER:                  -3.483
REMARK INTRA:                  -0.041
REMARK UNBOUND:                -0.055
REMARK  Name = 8063
REMARK  4 active torsions:
REMARK  status: ('A' for Active; 'I' for Inactive)
REMARK    1  A    between atoms: C_2  and  C_3
REMARK    2  A    between atoms: C_2  and  C_4
REMARK    3  A    between atoms: C_3  and  C_5
REMARK    4  A    between atoms: C_4  and  C_6
REMARK                            x       y       z     vdW  Elec       q    Type
REMARK                         _______ _______ _______ _____ _____    ______ ____
ROOT
ATOM      1  C   UNL     1       5.048  -3.451   0.103  0.00  0.00    +0.000 C 
ATOM      2  H   UNL     1       5.201  -4.496   0.400  0.00  0.00    +0.000 HD
ATOM      3  H   UNL     1       5.651  -2.838   0.788  0.00  0.00    +0.000 HD
ENDROOT
BRANCH   1   4
ATOM      4  C   UNL     1       3.574  -3.081   0.250  0.00  0.00    +0.000 C 
ATOM      5  H   UNL     1       2.971  -3.989   0.364  0.00  0.00    +0.000 HD
ATOM      6  H   UNL     1       3.429  -2.480   1.155  0.00  0.00    +0.000 HD
BRANCH   4   7
ATOM      7  C   UNL     1       3.072  -2.301  -0.956  0.00  0.00    +0.000 C 
ATOM      8  H   UNL     1       2.035  -1.987  -0.800  0.00  0.00    +0.000 HD
ATOM      9  H   UNL     1       3.110  -2.913  -1.862  0.00  0.00    +0.000 HD
ATOM     10  H   UNL     1       3.677  -1.404  -1.122  0.00  0.00    +0.000 HD
ENDBRANCH   4   7
ENDBRANCH   1   4
BRANCH   1  11
ATOM     11  C   UNL     1       5.533  -3.245  -1.328  0.00  0.00    +0.000 C 
ATOM     12  H   UNL     1       4.835  -2.611  -1.884  0.00  0.00    +0.000 HD
ATOM     13  H   UNL     1       5.608  -4.206  -1.847  0.00  0.00    +0.000 HD
BRANCH  11  15
ATOM     14  O   UNL     1       7.891  -3.095  -1.889  0.00  0.00    +0.000 OA
ATOM     15  C   UNL     1       6.890  -2.587  -1.393  0.00  0.00    +0.000 C 
ATOM     16  H   UNL     1       6.941  -1.580  -0.943  0.00  0.00    +0.000 HD
ENDBRANCH  11  15
ENDBRANCH   1  11
TORSDOF 4
ENDMDL
