MODEL 1
REMARK VINA RESULT:    -3.899      0.000      0.000
REMARK INTER + INTRA:          -5.624
REMARK INTER:                  -5.347
REMARK INTRA:                  -0.277
REMARK UNBOUND:                -0.357
REMARK  Name = 12348
REMARK  7 active torsions:
REMARK  status: ('A' for Active; 'I' for Inactive)
REMARK    1  A    between atoms: O_1  and  C_6
REMARK    2  A    between atoms: O_1  and  C_8
REMARK    3  A    between atoms: C_3  and  C_4
REMARK    4  A    between atoms: C_3  and  C_5
REMARK    5  A    between atoms: C_4  and  C_6
REMARK    6  A    between atoms: C_5  and  C_7
REMARK    7  A    between atoms: C_8  and  C_9
REMARK                            x       y       z     vdW  Elec       q    Type
REMARK                         _______ _______ _______ _____ _____    ______ ____
ROOT
ATOM      1  C   UNL     1      -0.180  -6.746  15.413  0.00  0.00    +0.000 C 
ATOM      2  H   UNL     1      -1.011  -6.706  14.699  0.00  0.00    +0.000 HD
ATOM      3  H   UNL     1       0.167  -7.787  15.410  0.00  0.00    +0.000 HD
ENDROOT
BRANCH   1   4
ATOM      4  C   UNL     1      -0.662  -6.354  16.808  0.00  0.00    +0.000 C 
ATOM      5  H   UNL     1      -1.757  -6.312  16.821  0.00  0.00    +0.000 HD
ATOM      6  H   UNL     1      -0.297  -5.349  17.053  0.00  0.00    +0.000 HD
BRANCH   4   7
ATOM      7  C   UNL     1      -0.173  -7.344  17.864  0.00  0.00    +0.000 C 
ATOM      8  H   UNL     1       0.855  -7.101  18.156  0.00  0.00    +0.000 HD
ATOM      9  H   UNL     1      -0.793  -7.266  18.765  0.00  0.00    +0.000 HD
BRANCH   7  10
ATOM     10  C   UNL     1      -0.223  -8.775  17.351  0.00  0.00    +0.000 C 
ATOM     11  H   UNL     1       0.534  -8.942  16.579  0.00  0.00    +0.000 HD
ATOM     12  H   UNL     1      -0.050  -9.489  18.163  0.00  0.00    +0.000 HD
ATOM     13  H   UNL     1      -1.205  -8.987  16.916  0.00  0.00    +0.000 HD
ENDBRANCH   7  10
ENDBRANCH   4   7
ENDBRANCH   1   4
BRANCH   1  14
ATOM     14  C   UNL     1       0.945  -5.841  14.931  0.00  0.00    +0.000 C 
ATOM     15  H   UNL     1       1.134  -6.014  13.865  0.00  0.00    +0.000 HD
ATOM     16  H   UNL     1       1.861  -6.049  15.496  0.00  0.00    +0.000 HD
BRANCH  14  17
ATOM     17  O   UNL     1       0.562  -4.487  15.129  0.00  0.00    +0.000 OA
BRANCH  17  19
ATOM     18  O   UNL     1       1.628  -2.461  14.822  0.00  0.00    +0.000 OA
ATOM     19  C   UNL     1       1.587  -3.594  15.282  0.00  0.00    +0.000 C 
BRANCH  19  20
ATOM     20  C   UNL     1       2.677  -4.204  16.110  0.00  0.00    +0.000 C 
ATOM     21  H   UNL     1       2.823  -3.617  17.020  0.00  0.00    +0.000 HD
ATOM     22  H   UNL     1       3.600  -4.251  15.529  0.00  0.00    +0.000 HD
ATOM     23  H   UNL     1       2.391  -5.221  16.394  0.00  0.00    +0.000 HD
ENDBRANCH  19  20
ENDBRANCH  17  19
ENDBRANCH  14  17
ENDBRANCH   1  14
TORSDOF 7
ENDMDL
MODEL 2
REMARK VINA RESULT:    -3.653      2.174      4.802
REMARK INTER + INTRA:          -5.291
REMARK INTER:                  -5.110
REMARK INTRA:                  -0.180
REMARK UNBOUND:                -0.357
REMARK  Name = 12348
REMARK  7 active torsions:
REMARK  status: ('A' for Active; 'I' for Inactive)
REMARK    1  A    between atoms: O_1  and  C_6
REMARK    2  A    between atoms: O_1  and  C_8
REMARK    3  A    between atoms: C_3  and  C_4
REMARK    4  A    between atoms: C_3  and  C_5
REMARK    5  A    between atoms: C_4  and  C_6
REMARK    6  A    between atoms: C_5  and  C_7
REMARK    7  A    between atoms: C_8  and  C_9
REMARK                            x       y       z     vdW  Elec       q    Type
REMARK                         _______ _______ _______ _____ _____    ______ ____
ROOT
ATOM      1  C   UNL     1       1.556  -5.058  14.675  0.00  0.00    +0.000 C 
ATOM      2  H   UNL     1       2.547  -5.495  14.852  0.00  0.00    +0.000 HD
ATOM      3  H   UNL     1       1.485  -4.909  13.591  0.00  0.00    +0.000 HD
ENDROOT
BRANCH   1   4
ATOM      4  C   UNL     1       1.431  -3.720  15.402  0.00  0.00    +0.000 C 
ATOM      5  H   UNL     1       0.783  -3.836  16.278  0.00  0.00    +0.000 HD
ATOM      6  H   UNL     1       0.953  -2.987  14.741  0.00  0.00    +0.000 HD
BRANCH   4   7
ATOM      7  C   UNL     1       2.798  -3.195  15.839  0.00  0.00    +0.000 C 
ATOM      8  H   UNL     1       2.678  -2.490  16.670  0.00  0.00    +0.000 HD
ATOM      9  H   UNL     1       3.416  -4.023  16.204  0.00  0.00    +0.000 HD
BRANCH   7  10
ATOM     10  C   UNL     1       3.521  -2.503  14.694  0.00  0.00    +0.000 C 
ATOM     11  H   UNL     1       3.329  -1.426  14.703  0.00  0.00    +0.000 HD
ATOM     12  H   UNL     1       4.602  -2.661  14.760  0.00  0.00    +0.000 HD
ATOM     13  H   UNL     1       3.177  -2.902  13.734  0.00  0.00    +0.000 HD
ENDBRANCH   7  10
ENDBRANCH   4   7
ENDBRANCH   1   4
BRANCH   1  14
ATOM     14  C   UNL     1       0.484  -6.041  15.119  0.00  0.00    +0.000 C 
ATOM     15  H   UNL     1      -0.215  -6.231  14.295  0.00  0.00    +0.000 HD
ATOM     16  H   UNL     1      -0.071  -5.632  15.971  0.00  0.00    +0.000 HD
BRANCH  14  17
ATOM     17  O   UNL     1       1.106  -7.260  15.499  0.00  0.00    +0.000 OA
BRANCH  17  19
ATOM     18  O   UNL     1       0.760  -9.072  16.889  0.00  0.00    +0.000 OA
ATOM     19  C   UNL     1       0.540  -7.915  16.558  0.00  0.00    +0.000 C 
BRANCH  19  20
ATOM     20  C   UNL     1      -0.408  -7.002  17.275  0.00  0.00    +0.000 C 
ATOM     21  H   UNL     1       0.149  -6.192  17.752  0.00  0.00    +0.000 HD
ATOM     22  H   UNL     1      -0.977  -7.568  18.016  0.00  0.00    +0.000 HD
ATOM     23  H   UNL     1      -1.108  -6.567  16.555  0.00  0.00    +0.000 HD
ENDBRANCH  19  20
ENDBRANCH  17  19
ENDBRANCH  14  17
ENDBRANCH   1  14
TORSDOF 7
ENDMDL
MODEL 3
REMARK VINA RESULT:    -3.439     23.573     25.421
REMARK INTER + INTRA:          -5.002
REMARK INTER:                  -4.742
REMARK INTRA:                  -0.260
REMARK UNBOUND:                -0.357
REMARK  Name = 12348
REMARK  7 active torsions:
REMARK  status: ('A' for Active; 'I' for Inactive)
REMARK    1  A    between atoms: O_1  and  C_6
REMARK    2  A    between atoms: O_1  and  C_8
REMARK    3  A    between atoms: C_3  and  C_4
REMARK    4  A    between atoms: C_3  and  C_5
REMARK    5  A    between atoms: C_4  and  C_6
REMARK    6  A    between atoms: C_5  and  C_7
REMARK    7  A    between atoms: C_8  and  C_9
REMARK                            x       y       z     vdW  Elec       q    Type
REMARK                         _______ _______ _______ _____ _____    ______ ____
ROOT
ATOM      1  C   UNL     1       5.371  12.795  -0.277  0.00  0.00    +0.000 C 
ATOM      2  H   UNL     1       5.009  13.588   0.389  0.00  0.00    +0.000 HD
ATOM      3  H   UNL     1       4.479  12.394  -0.775  0.00  0.00    +0.000 HD
ENDROOT
BRANCH   1   4
ATOM      4  C   UNL     1       6.062  11.699   0.532  0.00  0.00    +0.000 C 
ATOM      5  H   UNL     1       7.146  11.861   0.521  0.00  0.00    +0.000 HD
ATOM      6  H   UNL     1       5.875  10.725   0.064  0.00  0.00    +0.000 HD
BRANCH   4   7
ATOM      7  C   UNL     1       5.560  11.674   1.976  0.00  0.00    +0.000 C 
ATOM      8  H   UNL     1       4.468  11.768   1.993  0.00  0.00    +0.000 HD
ATOM      9  H   UNL     1       5.811  10.714   2.441  0.00  0.00    +0.000 HD
BRANCH   7  10
ATOM     10  C   UNL     1       6.173  12.798   2.797  0.00  0.00    +0.000 C 
ATOM     11  H   UNL     1       5.654  13.743   2.617  0.00  0.00    +0.000 HD
ATOM     12  H   UNL     1       6.121  12.574   3.868  0.00  0.00    +0.000 HD
ATOM     13  H   UNL     1       7.226  12.931   2.529  0.00  0.00    +0.000 HD
ENDBRANCH   7  10
ENDBRANCH   4   7
ENDBRANCH   1   4
BRANCH   1  14
ATOM     14  C   UNL     1       6.302  13.396  -1.320  0.00  0.00    +0.000 C 
ATOM     15  H   UNL     1       6.135  14.478  -1.392  0.00  0.00    +0.000 HD
ATOM     16  H   UNL     1       6.113  12.938  -2.298  0.00  0.00    +0.000 HD
BRANCH  14  17
ATOM     17  O   UNL     1       7.646  13.151  -0.932  0.00  0.00    +0.000 OA
BRANCH  17  19
ATOM     18  O   UNL     1       9.119  13.965  -2.514  0.00  0.00    +0.000 OA
ATOM     19  C   UNL     1       8.550  13.038  -1.953  0.00  0.00    +0.000 C 
BRANCH  19  20
ATOM     20  C   UNL     1       8.755  11.594  -2.298  0.00  0.00    +0.000 C 
ATOM     21  H   UNL     1       9.810  11.333  -2.183  0.00  0.00    +0.000 HD
ATOM     22  H   UNL     1       8.420  11.407  -3.320  0.00  0.00    +0.000 HD
ATOM     23  H   UNL     1       8.166  10.972  -1.618  0.00  0.00    +0.000 HD
ENDBRANCH  19  20
ENDBRANCH  17  19
ENDBRANCH  14  17
ENDBRANCH   1  14
TORSDOF 7
ENDMDL
MODEL 4
REMARK VINA RESULT:    -3.418     22.917     24.915
REMARK INTER + INTRA:          -4.974
REMARK INTER:                  -4.777
REMARK INTRA:                  -0.197
REMARK UNBOUND:                -0.357
REMARK  Name = 12348
REMARK  7 active torsions:
REMARK  status: ('A' for Active; 'I' for Inactive)
REMARK    1  A    between atoms: O_1  and  C_6
REMARK    2  A    between atoms: O_1  and  C_8
REMARK    3  A    between atoms: C_3  and  C_4
REMARK    4  A    between atoms: C_3  and  C_5
REMARK    5  A    between atoms: C_4  and  C_6
REMARK    6  A    between atoms: C_5  and  C_7
REMARK    7  A    between atoms: C_8  and  C_9
REMARK                            x       y       z     vdW  Elec       q    Type
REMARK                         _______ _______ _______ _____ _____    ______ ____
ROOT
ATOM      1  C   UNL     1       5.802  13.249  -0.972  0.00  0.00    +0.000 C 
ATOM      2  H   UNL     1       4.929  13.020  -1.596  0.00  0.00    +0.000 HD
ATOM      3  H   UNL     1       5.589  14.219  -0.506  0.00  0.00    +0.000 HD
ENDROOT
BRANCH   1   4
ATOM      4  C   UNL     1       7.058  13.343  -1.836  0.00  0.00    +0.000 C 
ATOM      5  H   UNL     1       7.527  14.324  -1.698  0.00  0.00    +0.000 HD
ATOM      6  H   UNL     1       6.782  13.261  -2.894  0.00  0.00    +0.000 HD
BRANCH   4   7
ATOM      7  C   UNL     1       8.058  12.241  -1.484  0.00  0.00    +0.000 C 
ATOM      8  H   UNL     1       8.729  12.586  -0.689  0.00  0.00    +0.000 HD
ATOM      9  H   UNL     1       7.526  11.363  -1.102  0.00  0.00    +0.000 HD
BRANCH   7  10
ATOM     10  C   UNL     1       8.884  11.833  -2.694  0.00  0.00    +0.000 C 
ATOM     11  H   UNL     1       8.490  12.284  -3.609  0.00  0.00    +0.000 HD
ATOM     12  H   UNL     1       9.928  12.141  -2.579  0.00  0.00    +0.000 HD
ATOM     13  H   UNL     1       8.863  10.745  -2.816  0.00  0.00    +0.000 HD
ENDBRANCH   7  10
ENDBRANCH   4   7
ENDBRANCH   1   4
BRANCH   1  14
ATOM     14  C   UNL     1       5.941  12.190   0.111  0.00  0.00    +0.000 C 
ATOM     15  H   UNL     1       6.642  12.532   0.882  0.00  0.00    +0.000 HD
ATOM     16  H   UNL     1       6.316  11.256  -0.324  0.00  0.00    +0.000 HD
BRANCH  14  17
ATOM     17  O   UNL     1       4.668  11.962   0.698  0.00  0.00    +0.000 OA
BRANCH  17  19
ATOM     18  O   UNL     1       3.498  12.773   2.516  0.00  0.00    +0.000 OA
ATOM     19  C   UNL     1       4.528  12.368   1.997  0.00  0.00    +0.000 C 
BRANCH  19  20
ATOM     20  C   UNL     1       5.838  12.243   2.714  0.00  0.00    +0.000 C 
ATOM     21  H   UNL     1       6.522  13.024   2.373  0.00  0.00    +0.000 HD
ATOM     22  H   UNL     1       6.264  11.253   2.537  0.00  0.00    +0.000 HD
ATOM     23  H   UNL     1       5.677  12.367   3.789  0.00  0.00    +0.000 HD
ENDBRANCH  19  20
ENDBRANCH  17  19
ENDBRANCH  14  17
ENDBRANCH   1  14
TORSDOF 7
ENDMDL
MODEL 5
REMARK VINA RESULT:    -3.417      2.424      3.238
REMARK INTER + INTRA:          -4.973
REMARK INTER:                  -4.592
REMARK INTRA:                  -0.381
REMARK UNBOUND:                -0.357
REMARK  Name = 12348
REMARK  7 active torsions:
REMARK  status: ('A' for Active; 'I' for Inactive)
REMARK    1  A    between atoms: O_1  and  C_6
REMARK    2  A    between atoms: O_1  and  C_8
REMARK    3  A    between atoms: C_3  and  C_4
REMARK    4  A    between atoms: C_3  and  C_5
REMARK    5  A    between atoms: C_4  and  C_6
REMARK    6  A    between atoms: C_5  and  C_7
REMARK    7  A    between atoms: C_8  and  C_9
REMARK                            x       y       z     vdW  Elec       q    Type
REMARK                         _______ _______ _______ _____ _____    ______ ____
ROOT
ATOM      1  C   UNL     1       1.651  -5.168  16.214  0.00  0.00    +0.000 C 
ATOM      2  H   UNL     1       2.019  -6.016  16.805  0.00  0.00    +0.000 HD
ATOM      3  H   UNL     1       2.026  -4.268  16.718  0.00  0.00    +0.000 HD
ENDROOT
BRANCH   1   4
ATOM      4  C   UNL     1       0.124  -5.162  16.191  0.00  0.00    +0.000 C 
ATOM      5  H   UNL     1      -0.230  -4.600  15.320  0.00  0.00    +0.000 HD
ATOM      6  H   UNL     1      -0.255  -4.648  17.083  0.00  0.00    +0.000 HD
BRANCH   4   7
ATOM      7  C   UNL     1      -0.437  -6.584  16.148  0.00  0.00    +0.000 C 
ATOM      8  H   UNL     1      -1.497  -6.558  15.871  0.00  0.00    +0.000 HD
ATOM      9  H   UNL     1       0.085  -7.167  15.381  0.00  0.00    +0.000 HD
BRANCH   7  10
ATOM     10  C   UNL     1      -0.286  -7.282  17.491  0.00  0.00    +0.000 C 
ATOM     11  H   UNL     1      -1.214  -7.785  17.778  0.00  0.00    +0.000 HD
ATOM     12  H   UNL     1       0.514  -8.029  17.457  0.00  0.00    +0.000 HD
ATOM     13  H   UNL     1      -0.038  -6.554  18.270  0.00  0.00    +0.000 HD
ENDBRANCH   7  10
ENDBRANCH   4   7
ENDBRANCH   1   4
BRANCH   1  14
ATOM     14  C   UNL     1       2.234  -5.238  14.811  0.00  0.00    +0.000 C 
ATOM     15  H   UNL     1       2.681  -4.273  14.542  0.00  0.00    +0.000 HD
ATOM     16  H   UNL     1       1.446  -5.481  14.089  0.00  0.00    +0.000 HD
BRANCH  14  17
ATOM     17  O   UNL     1       3.234  -6.247  14.779  0.00  0.00    +0.000 OA
BRANCH  17  19
ATOM     18  O   UNL     1       2.301  -7.804  13.351  0.00  0.00    +0.000 OA
ATOM     19  C   UNL     1       2.809  -7.497  14.420  0.00  0.00    +0.000 C 
BRANCH  19  20
ATOM     20  C   UNL     1       3.057  -8.461  15.541  0.00  0.00    +0.000 C 
ATOM     21  H   UNL     1       2.497  -9.383  15.365  0.00  0.00    +0.000 HD
ATOM     22  H   UNL     1       2.764  -8.008  16.490  0.00  0.00    +0.000 HD
ATOM     23  H   UNL     1       4.123  -8.703  15.582  0.00  0.00    +0.000 HD
ENDBRANCH  19  20
ENDBRANCH  17  19
ENDBRANCH  14  17
ENDBRANCH   1  14
TORSDOF 7
ENDMDL
MODEL 6
REMARK VINA RESULT:    -3.215     23.952     25.083
REMARK INTER + INTRA:          -4.699
REMARK INTER:                  -4.379
REMARK INTRA:                  -0.320
REMARK UNBOUND:                -0.357
REMARK  Name = 12348
REMARK  7 active torsions:
REMARK  status: ('A' for Active; 'I' for Inactive)
REMARK    1  A    between atoms: O_1  and  C_6
REMARK    2  A    between atoms: O_1  and  C_8
REMARK    3  A    between atoms: C_3  and  C_4
REMARK    4  A    between atoms: C_3  and  C_5
REMARK    5  A    between atoms: C_4  and  C_6
REMARK    6  A    between atoms: C_5  and  C_7
REMARK    7  A    between atoms: C_8  and  C_9
REMARK                            x       y       z     vdW  Elec       q    Type
REMARK                         _______ _______ _______ _____ _____    ______ ____
ROOT
ATOM      1  C   UNL     1      -5.897  -6.086  -8.519  0.00  0.00    +0.000 C 
ATOM      2  H   UNL     1      -6.583  -5.334  -8.927  0.00  0.00    +0.000 HD
ATOM      3  H   UNL     1      -5.141  -5.525  -7.955  0.00  0.00    +0.000 HD
ENDROOT
BRANCH   1   4
ATOM      4  C   UNL     1      -5.236  -6.869  -9.652  0.00  0.00    +0.000 C 
ATOM      5  H   UNL     1      -5.632  -6.527 -10.615  0.00  0.00    +0.000 HD
ATOM      6  H   UNL     1      -5.488  -7.932  -9.558  0.00  0.00    +0.000 HD
BRANCH   4   7
ATOM      7  C   UNL     1      -3.717  -6.702  -9.631  0.00  0.00    +0.000 C 
ATOM      8  H   UNL     1      -3.375  -6.288 -10.586  0.00  0.00    +0.000 HD
ATOM      9  H   UNL     1      -3.431  -5.992  -8.848  0.00  0.00    +0.000 HD
BRANCH   7  10
ATOM     10  C   UNL     1      -3.015  -8.028  -9.380  0.00  0.00    +0.000 C 
ATOM     11  H   UNL     1      -2.118  -7.887  -8.770  0.00  0.00    +0.000 HD
ATOM     12  H   UNL     1      -3.677  -8.730  -8.862  0.00  0.00    +0.000 HD
ATOM     13  H   UNL     1      -2.715  -8.482 -10.329  0.00  0.00    +0.000 HD
ENDBRANCH   7  10
ENDBRANCH   4   7
ENDBRANCH   1   4
BRANCH   1  14
ATOM     14  C   UNL     1      -6.656  -7.001  -7.570  0.00  0.00    +0.000 C 
ATOM     15  H   UNL     1      -7.734  -6.920  -7.754  0.00  0.00    +0.000 HD
ATOM     16  H   UNL     1      -6.447  -6.720  -6.531  0.00  0.00    +0.000 HD
BRANCH  14  17
ATOM     17  O   UNL     1      -6.239  -8.341  -7.791  0.00  0.00    +0.000 OA
BRANCH  17  19
ATOM     18  O   UNL     1      -4.758  -9.782  -6.759  0.00  0.00    +0.000 OA
ATOM     19  C   UNL     1      -5.678  -8.976  -6.717  0.00  0.00    +0.000 C 
BRANCH  19  20
ATOM     20  C   UNL     1      -6.358  -8.542  -5.454  0.00  0.00    +0.000 C 
ATOM     21  H   UNL     1      -7.381  -8.924  -5.435  0.00  0.00    +0.000 HD
ATOM     22  H   UNL     1      -6.352  -7.452  -5.388  0.00  0.00    +0.000 HD
ATOM     23  H   UNL     1      -5.819  -8.947  -4.594  0.00  0.00    +0.000 HD
ENDBRANCH  19  20
ENDBRANCH  17  19
ENDBRANCH  14  17
ENDBRANCH   1  14
TORSDOF 7
ENDMDL
MODEL 7
REMARK VINA RESULT:    -3.204     16.155     16.979
REMARK INTER + INTRA:          -4.685
REMARK INTER:                  -4.567
REMARK INTRA:                  -0.118
REMARK UNBOUND:                -0.357
REMARK  Name = 12348
REMARK  7 active torsions:
REMARK  status: ('A' for Active; 'I' for Inactive)
REMARK    1  A    between atoms: O_1  and  C_6
REMARK    2  A    between atoms: O_1  and  C_8
REMARK    3  A    between atoms: C_3  and  C_4
REMARK    4  A    between atoms: C_3  and  C_5
REMARK    5  A    between atoms: C_4  and  C_6
REMARK    6  A    between atoms: C_5  and  C_7
REMARK    7  A    between atoms: C_8  and  C_9
REMARK                            x       y       z     vdW  Elec       q    Type
REMARK                         _______ _______ _______ _____ _____    ______ ____
ROOT
ATOM      1  C   UNL     1       0.695  10.253  12.525  0.00  0.00    +0.000 C 
ATOM      2  H   UNL     1       1.143  10.436  13.510  0.00  0.00    +0.000 HD
ATOM      3  H   UNL     1       0.642   9.162  12.421  0.00  0.00    +0.000 HD
ENDROOT
BRANCH   1   4
ATOM      4  C   UNL     1       1.574  10.847  11.426  0.00  0.00    +0.000 C 
ATOM      5  H   UNL     1       1.634  11.934  11.550  0.00  0.00    +0.000 HD
ATOM      6  H   UNL     1       1.116  10.657  10.448  0.00  0.00    +0.000 HD
BRANCH   4   7
ATOM      7  C   UNL     1       2.980  10.248  11.454  0.00  0.00    +0.000 C 
ATOM      8  H   UNL     1       3.034   9.391  10.773  0.00  0.00    +0.000 HD
ATOM      9  H   UNL     1       3.707  10.988  11.103  0.00  0.00    +0.000 HD
BRANCH   7  10
ATOM     10  C   UNL     1       3.366   9.799  12.855  0.00  0.00    +0.000 C 
ATOM     11  H   UNL     1       3.972  10.558  13.358  0.00  0.00    +0.000 HD
ATOM     12  H   UNL     1       2.477   9.608  13.464  0.00  0.00    +0.000 HD
ATOM     13  H   UNL     1       3.950   8.874  12.808  0.00  0.00    +0.000 HD
ENDBRANCH   7  10
ENDBRANCH   4   7
ENDBRANCH   1   4
BRANCH   1  14
ATOM     14  C   UNL     1      -0.712  10.830  12.495  0.00  0.00    +0.000 C 
ATOM     15  H   UNL     1      -0.677  11.887  12.201  0.00  0.00    +0.000 HD
ATOM     16  H   UNL     1      -1.172  10.749  13.486  0.00  0.00    +0.000 HD
BRANCH  14  17
ATOM     17  O   UNL     1      -1.486  10.104  11.551  0.00  0.00    +0.000 OA
BRANCH  17  19
ATOM     18  O   UNL     1      -3.595   9.665  12.386  0.00  0.00    +0.000 OA
ATOM     19  C   UNL     1      -2.842  10.271  11.636  0.00  0.00    +0.000 C 
BRANCH  19  20
ATOM     20  C   UNL     1      -3.289  11.323  10.667  0.00  0.00    +0.000 C 
ATOM     21  H   UNL     1      -4.376  11.419  10.701  0.00  0.00    +0.000 HD
ATOM     22  H   UNL     1      -2.956  11.062   9.659  0.00  0.00    +0.000 HD
ATOM     23  H   UNL     1      -2.845  12.284  10.943  0.00  0.00    +0.000 HD
ENDBRANCH  19  20
ENDBRANCH  17  19
ENDBRANCH  14  17
ENDBRANCH   1  14
TORSDOF 7
ENDMDL
MODEL 8
REMARK VINA RESULT:    -3.203     25.879     27.769
REMARK INTER + INTRA:          -4.683
REMARK INTER:                  -4.482
REMARK INTRA:                  -0.201
REMARK UNBOUND:                -0.357
REMARK  Name = 12348
REMARK  7 active torsions:
REMARK  status: ('A' for Active; 'I' for Inactive)
REMARK    1  A    between atoms: O_1  and  C_6
REMARK    2  A    between atoms: O_1  and  C_8
REMARK    3  A    between atoms: C_3  and  C_4
REMARK    4  A    between atoms: C_3  and  C_5
REMARK    5  A    between atoms: C_4  and  C_6
REMARK    6  A    between atoms: C_5  and  C_7
REMARK    7  A    between atoms: C_8  and  C_9
REMARK                            x       y       z     vdW  Elec       q    Type
REMARK                         _______ _______ _______ _____ _____    ______ ____
ROOT
ATOM      1  C   UNL     1      17.452   9.838   0.502  0.00  0.00    +0.000 C 
ATOM      2  H   UNL     1      17.536  10.838   0.945  0.00  0.00    +0.000 HD
ATOM      3  H   UNL     1      17.279  10.000  -0.570  0.00  0.00    +0.000 HD
ENDROOT
BRANCH   1   4
ATOM      4  C   UNL     1      16.276   9.084   1.118  0.00  0.00    +0.000 C 
ATOM      5  H   UNL     1      15.897   8.344   0.404  0.00  0.00    +0.000 HD
ATOM      6  H   UNL     1      15.457   9.784   1.322  0.00  0.00    +0.000 HD
BRANCH   4   7
ATOM      7  C   UNL     1      16.682   8.385   2.416  0.00  0.00    +0.000 C 
ATOM      8  H   UNL     1      16.198   7.404   2.478  0.00  0.00    +0.000 HD
ATOM      9  H   UNL     1      17.764   8.214   2.424  0.00  0.00    +0.000 HD
BRANCH   7  10
ATOM     10  C   UNL     1      16.301   9.210   3.635  0.00  0.00    +0.000 C 
ATOM     11  H   UNL     1      15.214   9.307   3.720  0.00  0.00    +0.000 HD
ATOM     12  H   UNL     1      16.679   8.750   4.554  0.00  0.00    +0.000 HD
ATOM     13  H   UNL     1      16.727  10.216   3.559  0.00  0.00    +0.000 HD
ENDBRANCH   7  10
ENDBRANCH   4   7
ENDBRANCH   1   4
BRANCH   1  14
ATOM     14  C   UNL     1      18.762   9.089   0.692  0.00  0.00    +0.000 C 
ATOM     15  H   UNL     1      18.605   8.014   0.542  0.00  0.00    +0.000 HD
ATOM     16  H   UNL     1      19.147   9.258   1.705  0.00  0.00    +0.000 HD
BRANCH  14  17
ATOM     17  O   UNL     1      19.705   9.565  -0.258  0.00  0.00    +0.000 OA
BRANCH  17  19
ATOM     18  O   UNL     1      21.098   8.743  -1.908  0.00  0.00    +0.000 OA
ATOM     19  C   UNL     1      20.477   8.610  -0.862  0.00  0.00    +0.000 C 
BRANCH  19  20
ATOM     20  C   UNL     1      20.459   7.350  -0.050  0.00  0.00    +0.000 C 
ATOM     21  H   UNL     1      19.576   6.760  -0.304  0.00  0.00    +0.000 HD
ATOM     22  H   UNL     1      20.467   7.596   1.014  0.00  0.00    +0.000 HD
ATOM     23  H   UNL     1      21.350   6.759  -0.279  0.00  0.00    +0.000 HD
ENDBRANCH  19  20
ENDBRANCH  17  19
ENDBRANCH  14  17
ENDBRANCH   1  14
TORSDOF 7
ENDMDL
MODEL 9
REMARK VINA RESULT:    -3.195     22.898     24.110
REMARK INTER + INTRA:          -4.672
REMARK INTER:                  -4.315
REMARK INTRA:                  -0.357
REMARK UNBOUND:                -0.357
REMARK  Name = 12348
REMARK  7 active torsions:
REMARK  status: ('A' for Active; 'I' for Inactive)
REMARK    1  A    between atoms: O_1  and  C_6
REMARK    2  A    between atoms: O_1  and  C_8
REMARK    3  A    between atoms: C_3  and  C_4
REMARK    4  A    between atoms: C_3  and  C_5
REMARK    5  A    between atoms: C_4  and  C_6
REMARK    6  A    between atoms: C_5  and  C_7
REMARK    7  A    between atoms: C_8  and  C_9
REMARK                            x       y       z     vdW  Elec       q    Type
REMARK                         _______ _______ _______ _____ _____    ______ ____
ROOT
ATOM      1  C   UNL     1      14.639 -10.385  -4.573  0.00  0.00    +0.000 C 
ATOM      2  H   UNL     1      15.668 -10.734  -4.418  0.00  0.00    +0.000 HD
ATOM      3  H   UNL     1      14.282 -10.900  -5.474  0.00  0.00    +0.000 HD
ENDROOT
BRANCH   1   4
ATOM      4  C   UNL     1      14.620  -8.873  -4.786  0.00  0.00    +0.000 C 
ATOM      5  H   UNL     1      15.640  -8.478  -4.713  0.00  0.00    +0.000 HD
ATOM      6  H   UNL     1      14.032  -8.398  -3.991  0.00  0.00    +0.000 HD
BRANCH   4   7
ATOM      7  C   UNL     1      14.024  -8.511  -6.146  0.00  0.00    +0.000 C 
ATOM      8  H   UNL     1      14.132  -7.435  -6.326  0.00  0.00    +0.000 HD
ATOM      9  H   UNL     1      14.569  -9.030  -6.942  0.00  0.00    +0.000 HD
BRANCH   7  10
ATOM     10  C   UNL     1      12.552  -8.886  -6.226  0.00  0.00    +0.000 C 
ATOM     11  H   UNL     1      12.414  -9.819  -6.779  0.00  0.00    +0.000 HD
ATOM     12  H   UNL     1      12.124  -9.010  -5.226  0.00  0.00    +0.000 HD
ATOM     13  H   UNL     1      11.989  -8.100  -6.740  0.00  0.00    +0.000 HD
ENDBRANCH   7  10
ENDBRANCH   4   7
ENDBRANCH   1   4
BRANCH   1  14
ATOM     14  C   UNL     1      13.782 -10.797  -3.386  0.00  0.00    +0.000 C 
ATOM     15  H   UNL     1      14.396 -11.321  -2.644  0.00  0.00    +0.000 HD
ATOM     16  H   UNL     1      12.976 -11.462  -3.718  0.00  0.00    +0.000 HD
BRANCH  14  17
ATOM     17  O   UNL     1      13.222  -9.632  -2.796  0.00  0.00    +0.000 OA
BRANCH  17  19
ATOM     18  O   UNL     1      11.255  -8.881  -1.845  0.00  0.00    +0.000 OA
ATOM     19  C   UNL     1      11.884  -9.688  -2.516  0.00  0.00    +0.000 C 
BRANCH  19  20
ATOM     20  C   UNL     1      11.279 -10.900  -3.158  0.00  0.00    +0.000 C 
ATOM     21  H   UNL     1      11.253 -10.770  -4.242  0.00  0.00    +0.000 HD
ATOM     22  H   UNL     1      10.272 -11.062  -2.765  0.00  0.00    +0.000 HD
ATOM     23  H   UNL     1      11.890 -11.777  -2.926  0.00  0.00    +0.000 HD
ENDBRANCH  19  20
ENDBRANCH  17  19
ENDBRANCH  14  17
ENDBRANCH   1  14
TORSDOF 7
ENDMDL
MODEL 10
REMARK VINA RESULT:    -3.073     25.742     26.947
REMARK INTER + INTRA:          -4.508
REMARK INTER:                  -4.283
REMARK INTRA:                  -0.225
REMARK UNBOUND:                -0.357
REMARK  Name = 12348
REMARK  7 active torsions:
REMARK  status: ('A' for Active; 'I' for Inactive)
REMARK    1  A    between atoms: O_1  and  C_6
REMARK    2  A    between atoms: O_1  and  C_8
REMARK    3  A    between atoms: C_3  and  C_4
REMARK    4  A    between atoms: C_3  and  C_5
REMARK    5  A    between atoms: C_4  and  C_6
REMARK    6  A    between atoms: C_5  and  C_7
REMARK    7  A    between atoms: C_8  and  C_9
REMARK                            x       y       z     vdW  Elec       q    Type
REMARK                         _______ _______ _______ _____ _____    ______ ____
ROOT
ATOM      1  C   UNL     1      17.682   7.673   2.641  0.00  0.00    +0.000 C 
ATOM      2  H   UNL     1      17.302   7.449   1.636  0.00  0.00    +0.000 HD
ATOM      3  H   UNL     1      17.406   6.813   3.264  0.00  0.00    +0.000 HD
ENDROOT
BRANCH   1   4
ATOM      4  C   UNL     1      17.031   8.945   3.180  0.00  0.00    +0.000 C 
ATOM      5  H   UNL     1      17.799   9.709   3.349  0.00  0.00    +0.000 HD
ATOM      6  H   UNL     1      16.565   8.736   4.151  0.00  0.00    +0.000 HD
BRANCH   4   7
ATOM      7  C   UNL     1      15.975   9.482   2.215  0.00  0.00    +0.000 C 
ATOM      8  H   UNL     1      15.059   8.884   2.294  0.00  0.00    +0.000 HD
ATOM      9  H   UNL     1      15.714  10.512   2.482  0.00  0.00    +0.000 HD
BRANCH   7  10
ATOM     10  C   UNL     1      16.469   9.452   0.777  0.00  0.00    +0.000 C 
ATOM     11  H   UNL     1      16.426   8.439   0.368  0.00  0.00    +0.000 HD
ATOM     12  H   UNL     1      15.864  10.107   0.141  0.00  0.00    +0.000 HD
ATOM     13  H   UNL     1      17.507   9.796   0.727  0.00  0.00    +0.000 HD
ENDBRANCH   7  10
ENDBRANCH   4   7
ENDBRANCH   1   4
BRANCH   1  14
ATOM     14  C   UNL     1      19.197   7.794   2.593  0.00  0.00    +0.000 C 
ATOM     15  H   UNL     1      19.614   7.688   3.602  0.00  0.00    +0.000 HD
ATOM     16  H   UNL     1      19.483   8.772   2.188  0.00  0.00    +0.000 HD
BRANCH  14  17
ATOM     17  O   UNL     1      19.714   6.767   1.759  0.00  0.00    +0.000 OA
BRANCH  17  19
ATOM     18  O   UNL     1      21.866   6.897   0.930  0.00  0.00    +0.000 OA
ATOM     19  C   UNL     1      20.672   7.152   0.861  0.00  0.00    +0.000 C 
BRANCH  19  20
ATOM     20  C   UNL     1      20.045   7.945  -0.246  0.00  0.00    +0.000 C 
ATOM     21  H   UNL     1      19.794   7.284  -1.078  0.00  0.00    +0.000 HD
ATOM     22  H   UNL     1      20.730   8.732  -0.571  0.00  0.00    +0.000 HD
ATOM     23  H   UNL     1      19.125   8.411   0.118  0.00  0.00    +0.000 HD
ENDBRANCH  19  20
ENDBRANCH  17  19
ENDBRANCH  14  17
ENDBRANCH   1  14
TORSDOF 7
ENDMDL
