MODEL 1
REMARK VINA RESULT:    -4.906      0.000      0.000
REMARK INTER + INTRA:          -7.495
REMARK INTER:                  -6.616
REMARK INTRA:                  -0.879
REMARK UNBOUND:                -0.724
REMARK  Name = 125098
REMARK  8 active torsions:
REMARK  status: ('A' for Active; 'I' for Inactive)
REMARK    1  A    between atoms: O_1  and  C_11
REMARK    2  A    between atoms: O_1  and  C_13
REMARK    3  A    between atoms: O_2  and  C_12
REMARK    4  A    between atoms: C_5  and  C_10
REMARK    5  A    between atoms: C_10  and  C_12
REMARK    6  A    between atoms: C_13  and  C_14
REMARK    7  A    between atoms: C_13  and  C_15
REMARK    8  A    between atoms: C_14  and  C_16
REMARK                            x       y       z     vdW  Elec       q    Type
REMARK                         _______ _______ _______ _____ _____    ______ ____
ROOT
ATOM      1  O   UNL     1       2.812 -13.520   3.738  0.00  0.00    +0.000 OA
ATOM      2  N   UNL     1       3.912 -12.827   1.805  0.00  0.00    +0.000 N 
ATOM      3  C   UNL     1       5.029 -13.016   0.855  0.00  0.00    +0.000 C 
ATOM      4  C   UNL     1       4.635 -12.588  -0.566  0.00  0.00    +0.000 C 
ATOM      5  C   UNL     1       3.980 -11.211  -0.611  0.00  0.00    +0.000 C 
ATOM      6  C   UNL     1       2.795 -11.159   0.346  0.00  0.00    +0.000 C 
ATOM      7  C   UNL     1       3.210 -11.541   1.761  0.00  0.00    +0.000 C 
ATOM      8  C   UNL     1       3.627 -13.729   2.840  0.00  0.00    +0.000 C 
ATOM      9  H   UNL     1       5.268 -14.085   0.802  0.00  0.00    +0.000 HD
ATOM     10  H   UNL     1       3.922 -13.322  -0.964  0.00  0.00    +0.000 HD
ATOM     11  H   UNL     1       5.508 -12.609  -1.229  0.00  0.00    +0.000 HD
ATOM     12  H   UNL     1       3.640 -10.998  -1.631  0.00  0.00    +0.000 HD
ATOM     13  H   UNL     1       4.707 -10.435  -0.349  0.00  0.00    +0.000 HD
ATOM     14  H   UNL     1       2.358 -10.154   0.345  0.00  0.00    +0.000 HD
ATOM     15  H   UNL     1       2.018 -11.850  -0.004  0.00  0.00    +0.000 HD
ATOM     16  H   UNL     1       3.887 -10.786   2.178  0.00  0.00    +0.000 HD
ATOM     17  H   UNL     1       2.326 -11.568   2.406  0.00  0.00    +0.000 HD
ENDROOT
BRANCH   3  18
ATOM     18  C   UNL     1       6.287 -12.299   1.351  0.00  0.00    +0.000 C 
ATOM     19  H   UNL     1       6.138 -11.875   2.351  0.00  0.00    +0.000 HD
ATOM     20  H   UNL     1       6.513 -11.444   0.701  0.00  0.00    +0.000 HD
BRANCH  18  21
ATOM     21  C   UNL     1       7.480 -13.234   1.388  0.00  0.00    +0.000 C 
ATOM     22  H   UNL     1       7.629 -13.759   0.443  0.00  0.00    +0.000 HD
ATOM     23  H   UNL     1       8.404 -12.712   1.655  0.00  0.00    +0.000 HD
BRANCH  21  24
ATOM     24  O   UNL     1       7.234 -14.238   2.363  0.00  0.00    +0.000 OA
ATOM     25  H   UNL     1       6.575 -13.887   2.987  0.00  0.00    +0.000 HD
ENDBRANCH  21  24
ENDBRANCH  18  21
ENDBRANCH   3  18
BRANCH   8  26
ATOM     26  O   UNL     1       4.361 -14.882   2.753  0.00  0.00    +0.000 OA
BRANCH  26  27
ATOM     27  C   UNL     1       3.616 -16.097   2.603  0.00  0.00    +0.000 C 
ATOM     28  H   UNL     1       2.557 -15.881   2.796  0.00  0.00    +0.000 HD
BRANCH  27  29
ATOM     29  C   UNL     1       4.098 -17.102   3.640  0.00  0.00    +0.000 C 
ATOM     30  H   UNL     1       5.166 -17.311   3.517  0.00  0.00    +0.000 HD
ATOM     31  H   UNL     1       3.978 -16.688   4.648  0.00  0.00    +0.000 HD
ATOM     32  H   UNL     1       3.544 -18.043   3.596  0.00  0.00    +0.000 HD
ENDBRANCH  27  29
BRANCH  27  33
ATOM     33  C   UNL     1       3.809 -16.631   1.183  0.00  0.00    +0.000 C 
ATOM     34  H   UNL     1       3.370 -17.628   1.068  0.00  0.00    +0.000 HD
ATOM     35  H   UNL     1       3.277 -15.994   0.464  0.00  0.00    +0.000 HD
BRANCH  33  36
ATOM     36  C   UNL     1       5.279 -16.728   0.798  0.00  0.00    +0.000 C 
ATOM     37  H   UNL     1       5.921 -16.730   1.684  0.00  0.00    +0.000 HD
ATOM     38  H   UNL     1       5.583 -15.903   0.146  0.00  0.00    +0.000 HD
ATOM     39  H   UNL     1       5.460 -17.657   0.248  0.00  0.00    +0.000 HD
ENDBRANCH  33  36
ENDBRANCH  27  33
ENDBRANCH  26  27
ENDBRANCH   8  26
TORSDOF 8
ENDMDL
MODEL 2
REMARK VINA RESULT:    -4.816     14.830     16.353
REMARK INTER + INTRA:          -7.370
REMARK INTER:                  -6.979
REMARK INTRA:                  -0.391
REMARK UNBOUND:                -0.724
REMARK  Name = 125098
REMARK  8 active torsions:
REMARK  status: ('A' for Active; 'I' for Inactive)
REMARK    1  A    between atoms: O_1  and  C_11
REMARK    2  A    between atoms: O_1  and  C_13
REMARK    3  A    between atoms: O_2  and  C_12
REMARK    4  A    between atoms: C_5  and  C_10
REMARK    5  A    between atoms: C_10  and  C_12
REMARK    6  A    between atoms: C_13  and  C_14
REMARK    7  A    between atoms: C_13  and  C_15
REMARK    8  A    between atoms: C_14  and  C_16
REMARK                            x       y       z     vdW  Elec       q    Type
REMARK                         _______ _______ _______ _____ _____    ______ ____
ROOT
ATOM      1  O   UNL     1       4.400  -7.131  17.169  0.00  0.00    +0.000 OA
ATOM      2  N   UNL     1       2.317  -6.394  16.433  0.00  0.00    +0.000 N 
ATOM      3  C   UNL     1       1.522  -5.686  15.406  0.00  0.00    +0.000 C 
ATOM      4  C   UNL     1       0.102  -6.262  15.302  0.00  0.00    +0.000 C 
ATOM      5  C   UNL     1      -0.581  -6.405  16.658  0.00  0.00    +0.000 C 
ATOM      6  C   UNL     1       0.291  -7.218  17.606  0.00  0.00    +0.000 C 
ATOM      7  C   UNL     1       1.682  -6.608  17.736  0.00  0.00    +0.000 C 
ATOM      8  C   UNL     1       3.678  -6.691  16.275  0.00  0.00    +0.000 C 
ATOM      9  H   UNL     1       1.993  -5.842  14.429  0.00  0.00    +0.000 HD
ATOM     10  H   UNL     1       0.164  -7.256  14.841  0.00  0.00    +0.000 HD
ATOM     11  H   UNL     1      -0.513  -5.646  14.636  0.00  0.00    +0.000 HD
ATOM     12  H   UNL     1      -1.551  -6.901  16.531  0.00  0.00    +0.000 HD
ATOM     13  H   UNL     1      -0.783  -5.417  17.088  0.00  0.00    +0.000 HD
ATOM     14  H   UNL     1      -0.183  -7.277  18.592  0.00  0.00    +0.000 HD
ATOM     15  H   UNL     1       0.377  -8.243  17.227  0.00  0.00    +0.000 HD
ATOM     16  H   UNL     1       1.628  -5.635  18.237  0.00  0.00    +0.000 HD
ATOM     17  H   UNL     1       2.306  -7.255  18.361  0.00  0.00    +0.000 HD
ENDROOT
BRANCH   3  18
ATOM     18  C   UNL     1       1.521  -4.178  15.668  0.00  0.00    +0.000 C 
ATOM     19  H   UNL     1       1.894  -3.946  16.673  0.00  0.00    +0.000 HD
ATOM     20  H   UNL     1       0.493  -3.793  15.642  0.00  0.00    +0.000 HD
BRANCH  18  21
ATOM     21  C   UNL     1       2.364  -3.437  14.649  0.00  0.00    +0.000 C 
ATOM     22  H   UNL     1       3.371  -3.226  15.014  0.00  0.00    +0.000 HD
ATOM     23  H   UNL     1       2.435  -3.981  13.702  0.00  0.00    +0.000 HD
BRANCH  21  24
ATOM     24  O   UNL     1       1.762  -2.175  14.399  0.00  0.00    +0.000 OA
ATOM     25  H   UNL     1       1.087  -2.030  15.084  0.00  0.00    +0.000 HD
ENDBRANCH  21  24
ENDBRANCH  18  21
ENDBRANCH   3  18
BRANCH   8  26
ATOM     26  O   UNL     1       4.132  -6.436  15.008  0.00  0.00    +0.000 OA
BRANCH  26  27
ATOM     27  C   UNL     1       5.104  -7.350  14.488  0.00  0.00    +0.000 C 
ATOM     28  H   UNL     1       5.253  -8.154  15.220  0.00  0.00    +0.000 HD
BRANCH  27  29
ATOM     29  C   UNL     1       6.424  -6.615  14.306  0.00  0.00    +0.000 C 
ATOM     30  H   UNL     1       6.993  -6.591  15.242  0.00  0.00    +0.000 HD
ATOM     31  H   UNL     1       7.050  -7.143  13.577  0.00  0.00    +0.000 HD
ATOM     32  H   UNL     1       6.285  -5.591  13.949  0.00  0.00    +0.000 HD
ENDBRANCH  27  29
BRANCH  27  33
ATOM     33  C   UNL     1       4.598  -7.916  13.159  0.00  0.00    +0.000 C 
ATOM     34  H   UNL     1       4.760  -7.211  12.337  0.00  0.00    +0.000 HD
ATOM     35  H   UNL     1       5.167  -8.814  12.890  0.00  0.00    +0.000 HD
BRANCH  33  36
ATOM     36  C   UNL     1       3.110  -8.241  13.200  0.00  0.00    +0.000 C 
ATOM     37  H   UNL     1       2.514  -7.416  12.798  0.00  0.00    +0.000 HD
ATOM     38  H   UNL     1       2.770  -8.457  14.217  0.00  0.00    +0.000 HD
ATOM     39  H   UNL     1       2.907  -9.131  12.595  0.00  0.00    +0.000 HD
ENDBRANCH  33  36
ENDBRANCH  27  33
ENDBRANCH  26  27
ENDBRANCH   8  26
TORSDOF 8
ENDMDL
MODEL 3
REMARK VINA RESULT:    -4.649      1.703      3.924
REMARK INTER + INTRA:          -7.140
REMARK INTER:                  -6.713
REMARK INTRA:                  -0.426
REMARK UNBOUND:                -0.724
REMARK  Name = 125098
REMARK  8 active torsions:
REMARK  status: ('A' for Active; 'I' for Inactive)
REMARK    1  A    between atoms: O_1  and  C_11
REMARK    2  A    between atoms: O_1  and  C_13
REMARK    3  A    between atoms: O_2  and  C_12
REMARK    4  A    between atoms: C_5  and  C_10
REMARK    5  A    between atoms: C_10  and  C_12
REMARK    6  A    between atoms: C_13  and  C_14
REMARK    7  A    between atoms: C_13  and  C_15
REMARK    8  A    between atoms: C_14  and  C_16
REMARK                            x       y       z     vdW  Elec       q    Type
REMARK                         _______ _______ _______ _____ _____    ______ ____
ROOT
ATOM      1  O   UNL     1       6.714 -11.777  -0.047  0.00  0.00    +0.000 OA
ATOM      2  N   UNL     1       4.939 -12.491   1.280  0.00  0.00    +0.000 N 
ATOM      3  C   UNL     1       4.453 -13.368   2.367  0.00  0.00    +0.000 C 
ATOM      4  C   UNL     1       3.297 -12.715   3.140  0.00  0.00    +0.000 C 
ATOM      5  C   UNL     1       2.209 -12.162   2.224  0.00  0.00    +0.000 C 
ATOM      6  C   UNL     1       2.814 -11.211   1.199  0.00  0.00    +0.000 C 
ATOM      7  C   UNL     1       3.928 -11.887   0.408  0.00  0.00    +0.000 C 
ATOM      8  C   UNL     1       6.296 -12.368   0.947  0.00  0.00    +0.000 C 
ATOM      9  H   UNL     1       5.264 -13.515   3.089  0.00  0.00    +0.000 HD
ATOM     10  H   UNL     1       3.702 -11.885   3.734  0.00  0.00    +0.000 HD
ATOM     11  H   UNL     1       2.861 -13.425   3.852  0.00  0.00    +0.000 HD
ATOM     12  H   UNL     1       1.459 -11.631   2.823  0.00  0.00    +0.000 HD
ATOM     13  H   UNL     1       1.689 -12.980   1.715  0.00  0.00    +0.000 HD
ATOM     14  H   UNL     1       2.037 -10.854   0.515  0.00  0.00    +0.000 HD
ATOM     15  H   UNL     1       3.218 -10.332   1.717  0.00  0.00    +0.000 HD
ATOM     16  H   UNL     1       3.519 -12.686  -0.220  0.00  0.00    +0.000 HD
ATOM     17  H   UNL     1       4.392 -11.158  -0.264  0.00  0.00    +0.000 HD
ENDROOT
BRANCH   3  18
ATOM     18  C   UNL     1       4.080 -14.749   1.821  0.00  0.00    +0.000 C 
ATOM     19  H   UNL     1       4.943 -15.242   1.358  0.00  0.00    +0.000 HD
ATOM     20  H   UNL     1       3.336 -14.648   1.021  0.00  0.00    +0.000 HD
BRANCH  18  21
ATOM     21  C   UNL     1       3.531 -15.646   2.913  0.00  0.00    +0.000 C 
ATOM     22  H   UNL     1       3.047 -15.082   3.713  0.00  0.00    +0.000 HD
ATOM     23  H   UNL     1       2.825 -16.385   2.521  0.00  0.00    +0.000 HD
BRANCH  21  24
ATOM     24  O   UNL     1       4.616 -16.337   3.515  0.00  0.00    +0.000 OA
ATOM     25  H   UNL     1       4.584 -16.160   4.471  0.00  0.00    +0.000 HD
ENDBRANCH  21  24
ENDBRANCH  18  21
ENDBRANCH   3  18
BRANCH   8  26
ATOM     26  O   UNL     1       7.120 -12.985   1.849  0.00  0.00    +0.000 OA
BRANCH  26  27
ATOM     27  C   UNL     1       8.155 -13.809   1.300  0.00  0.00    +0.000 C 
ATOM     28  H   UNL     1       8.682 -13.236   0.526  0.00  0.00    +0.000 HD
BRANCH  27  29
ATOM     29  C   UNL     1       7.521 -15.028   0.647  0.00  0.00    +0.000 C 
ATOM     30  H   UNL     1       7.622 -14.987  -0.444  0.00  0.00    +0.000 HD
ATOM     31  H   UNL     1       8.039 -15.939   0.970  0.00  0.00    +0.000 HD
ATOM     32  H   UNL     1       6.464 -15.134   0.902  0.00  0.00    +0.000 HD
ENDBRANCH  27  29
BRANCH  27  33
ATOM     33  C   UNL     1       9.116 -14.217   2.419  0.00  0.00    +0.000 C 
ATOM     34  H   UNL     1      10.158 -14.032   2.137  0.00  0.00    +0.000 HD
ATOM     35  H   UNL     1       8.941 -13.601   3.310  0.00  0.00    +0.000 HD
BRANCH  33  36
ATOM     36  C   UNL     1       8.991 -15.692   2.778  0.00  0.00    +0.000 C 
ATOM     37  H   UNL     1       9.733 -15.981   3.527  0.00  0.00    +0.000 HD
ATOM     38  H   UNL     1       9.108 -16.334   1.901  0.00  0.00    +0.000 HD
ATOM     39  H   UNL     1       7.997 -15.890   3.194  0.00  0.00    +0.000 HD
ENDBRANCH  33  36
ENDBRANCH  27  33
ENDBRANCH  26  27
ENDBRANCH   8  26
TORSDOF 8
ENDMDL
MODEL 4
REMARK VINA RESULT:    -4.639     14.906     16.276
REMARK INTER + INTRA:          -7.125
REMARK INTER:                  -6.655
REMARK INTRA:                  -0.470
REMARK UNBOUND:                -0.724
REMARK  Name = 125098
REMARK  8 active torsions:
REMARK  status: ('A' for Active; 'I' for Inactive)
REMARK    1  A    between atoms: O_1  and  C_11
REMARK    2  A    between atoms: O_1  and  C_13
REMARK    3  A    between atoms: O_2  and  C_12
REMARK    4  A    between atoms: C_5  and  C_10
REMARK    5  A    between atoms: C_10  and  C_12
REMARK    6  A    between atoms: C_13  and  C_14
REMARK    7  A    between atoms: C_13  and  C_15
REMARK    8  A    between atoms: C_14  and  C_16
REMARK                            x       y       z     vdW  Elec       q    Type
REMARK                         _______ _______ _______ _____ _____    ______ ____
ROOT
ATOM      1  O   UNL     1       2.831  -6.987  18.429  0.00  0.00    +0.000 OA
ATOM      2  N   UNL     1       2.661  -6.091  16.286  0.00  0.00    +0.000 N 
ATOM      3  C   UNL     1       2.298  -6.285  14.865  0.00  0.00    +0.000 C 
ATOM      4  C   UNL     1       1.794  -4.979  14.233  0.00  0.00    +0.000 C 
ATOM      5  C   UNL     1       2.715  -3.793  14.505  0.00  0.00    +0.000 C 
ATOM      6  C   UNL     1       2.953  -3.643  16.003  0.00  0.00    +0.000 C 
ATOM      7  C   UNL     1       3.497  -4.932  16.608  0.00  0.00    +0.000 C 
ATOM      8  C   UNL     1       2.401  -7.047  17.278  0.00  0.00    +0.000 C 
ATOM      9  H   UNL     1       1.467  -6.997  14.809  0.00  0.00    +0.000 HD
ATOM     10  H   UNL     1       0.805  -4.750  14.651  0.00  0.00    +0.000 HD
ATOM     11  H   UNL     1       1.656  -5.104  13.153  0.00  0.00    +0.000 HD
ATOM     12  H   UNL     1       2.263  -2.877  14.110  0.00  0.00    +0.000 HD
ATOM     13  H   UNL     1       3.670  -3.927  13.986  0.00  0.00    +0.000 HD
ATOM     14  H   UNL     1       3.652  -2.821  16.190  0.00  0.00    +0.000 HD
ATOM     15  H   UNL     1       2.007  -3.381  16.494  0.00  0.00    +0.000 HD
ATOM     16  H   UNL     1       4.503  -5.138  16.226  0.00  0.00    +0.000 HD
ATOM     17  H   UNL     1       3.584  -4.816  17.693  0.00  0.00    +0.000 HD
ENDROOT
BRANCH   3  18
ATOM     18  C   UNL     1       3.467  -6.895  14.087  0.00  0.00    +0.000 C 
ATOM     19  H   UNL     1       4.247  -7.265  14.763  0.00  0.00    +0.000 HD
ATOM     20  H   UNL     1       3.952  -6.124  13.474  0.00  0.00    +0.000 HD
BRANCH  18  21
ATOM     21  C   UNL     1       3.006  -8.033  13.198  0.00  0.00    +0.000 C 
ATOM     22  H   UNL     1       2.634  -8.885  13.770  0.00  0.00    +0.000 HD
ATOM     23  H   UNL     1       2.236  -7.715  12.489  0.00  0.00    +0.000 HD
BRANCH  21  24
ATOM     24  O   UNL     1       4.125  -8.509  12.462  0.00  0.00    +0.000 OA
ATOM     25  H   UNL     1       3.986  -8.272  11.529  0.00  0.00    +0.000 HD
ENDBRANCH  21  24
ENDBRANCH  18  21
ENDBRANCH   3  18
BRANCH   8  26
ATOM     26  O   UNL     1       1.612  -8.073  16.830  0.00  0.00    +0.000 OA
BRANCH  26  27
ATOM     27  C   UNL     1       0.289  -8.139  17.374  0.00  0.00    +0.000 C 
ATOM     28  H   UNL     1       0.280  -7.602  18.332  0.00  0.00    +0.000 HD
BRANCH  27  29
ATOM     29  C   UNL     1      -0.064  -9.596  17.638  0.00  0.00    +0.000 C 
ATOM     30  H   UNL     1       0.034  -9.838  18.702  0.00  0.00    +0.000 HD
ATOM     31  H   UNL     1      -1.112  -9.781  17.375  0.00  0.00    +0.000 HD
ATOM     32  H   UNL     1       0.554 -10.285  17.058  0.00  0.00    +0.000 HD
ENDBRANCH  27  29
BRANCH  27  33
ATOM     33  C   UNL     1      -0.691  -7.501  16.387  0.00  0.00    +0.000 C 
ATOM     34  H   UNL     1      -0.345  -7.611  15.354  0.00  0.00    +0.000 HD
ATOM     35  H   UNL     1      -1.658  -8.019  16.428  0.00  0.00    +0.000 HD
BRANCH  33  36
ATOM     36  C   UNL     1      -0.890  -6.015  16.651  0.00  0.00    +0.000 C 
ATOM     37  H   UNL     1      -0.591  -5.416  15.785  0.00  0.00    +0.000 HD
ATOM     38  H   UNL     1      -0.323  -5.678  17.523  0.00  0.00    +0.000 HD
ATOM     39  H   UNL     1      -1.947  -5.811  16.853  0.00  0.00    +0.000 HD
ENDBRANCH  33  36
ENDBRANCH  27  33
ENDBRANCH  26  27
ENDBRANCH   8  26
TORSDOF 8
ENDMDL
MODEL 5
REMARK VINA RESULT:    -4.525     16.267     17.461
REMARK INTER + INTRA:          -6.969
REMARK INTER:                  -6.192
REMARK INTRA:                  -0.777
REMARK UNBOUND:                -0.724
REMARK  Name = 125098
REMARK  8 active torsions:
REMARK  status: ('A' for Active; 'I' for Inactive)
REMARK    1  A    between atoms: O_1  and  C_11
REMARK    2  A    between atoms: O_1  and  C_13
REMARK    3  A    between atoms: O_2  and  C_12
REMARK    4  A    between atoms: C_5  and  C_10
REMARK    5  A    between atoms: C_10  and  C_12
REMARK    6  A    between atoms: C_13  and  C_14
REMARK    7  A    between atoms: C_13  and  C_15
REMARK    8  A    between atoms: C_14  and  C_16
REMARK                            x       y       z     vdW  Elec       q    Type
REMARK                         _______ _______ _______ _____ _____    ______ ____
ROOT
ATOM      1  O   UNL     1       4.457  -6.276  17.254  0.00  0.00    +0.000 OA
ATOM      2  N   UNL     1       2.921  -4.980  16.077  0.00  0.00    +0.000 N 
ATOM      3  C   UNL     1       1.508  -4.682  15.758  0.00  0.00    +0.000 C 
ATOM      4  C   UNL     1       1.307  -3.192  15.443  0.00  0.00    +0.000 C 
ATOM      5  C   UNL     1       2.320  -2.656  14.436  0.00  0.00    +0.000 C 
ATOM      6  C   UNL     1       3.739  -2.949  14.908  0.00  0.00    +0.000 C 
ATOM      7  C   UNL     1       3.938  -4.437  15.172  0.00  0.00    +0.000 C 
ATOM      8  C   UNL     1       3.304  -5.888  17.074  0.00  0.00    +0.000 C 
ATOM      9  H   UNL     1       0.895  -4.898  16.641  0.00  0.00    +0.000 HD
ATOM     10  H   UNL     1       1.413  -2.623  16.375  0.00  0.00    +0.000 HD
ATOM     11  H   UNL     1       0.288  -3.011  15.080  0.00  0.00    +0.000 HD
ATOM     12  H   UNL     1       2.186  -1.575  14.319  0.00  0.00    +0.000 HD
ATOM     13  H   UNL     1       2.153  -3.107  13.452  0.00  0.00    +0.000 HD
ATOM     14  H   UNL     1       4.461  -2.605  14.160  0.00  0.00    +0.000 HD
ATOM     15  H   UNL     1       3.935  -2.387  15.830  0.00  0.00    +0.000 HD
ATOM     16  H   UNL     1       3.877  -5.003  14.236  0.00  0.00    +0.000 HD
ATOM     17  H   UNL     1       4.939  -4.604  15.582  0.00  0.00    +0.000 HD
ENDROOT
BRANCH   3  18
ATOM     18  C   UNL     1       1.007  -5.588  14.630  0.00  0.00    +0.000 C 
ATOM     19  H   UNL     1       1.840  -6.061  14.097  0.00  0.00    +0.000 HD
ATOM     20  H   UNL     1       0.477  -4.991  13.876  0.00  0.00    +0.000 HD
BRANCH  18  21
ATOM     21  C   UNL     1       0.085  -6.670  15.157  0.00  0.00    +0.000 C 
ATOM     22  H   UNL     1      -0.764  -6.855  14.496  0.00  0.00    +0.000 HD
ATOM     23  H   UNL     1       0.614  -7.612  15.330  0.00  0.00    +0.000 HD
BRANCH  21  24
ATOM     24  O   UNL     1      -0.464  -6.230  16.391  0.00  0.00    +0.000 OA
ATOM     25  H   UNL     1      -0.148  -6.833  17.086  0.00  0.00    +0.000 HD
ENDBRANCH  21  24
ENDBRANCH  18  21
ENDBRANCH   3  18
BRANCH   8  26
ATOM     26  O   UNL     1       2.248  -6.312  17.837  0.00  0.00    +0.000 OA
BRANCH  26  27
ATOM     27  C   UNL     1       2.398  -7.587  18.473  0.00  0.00    +0.000 C 
ATOM     28  H   UNL     1       3.456  -7.726  18.729  0.00  0.00    +0.000 HD
BRANCH  27  29
ATOM     29  C   UNL     1       1.994  -8.678  17.492  0.00  0.00    +0.000 C 
ATOM     30  H   UNL     1       1.245  -9.345  17.933  0.00  0.00    +0.000 HD
ATOM     31  H   UNL     1       1.527  -8.232  16.606  0.00  0.00    +0.000 HD
ATOM     32  H   UNL     1       2.847  -9.273  17.158  0.00  0.00    +0.000 HD
ENDBRANCH  27  29
BRANCH  27  33
ATOM     33  C   UNL     1       1.528  -7.624  19.731  0.00  0.00    +0.000 C 
ATOM     34  H   UNL     1       1.892  -8.369  20.446  0.00  0.00    +0.000 HD
ATOM     35  H   UNL     1       1.585  -6.663  20.258  0.00  0.00    +0.000 HD
BRANCH  33  36
ATOM     36  C   UNL     1       0.075  -7.956  19.419  0.00  0.00    +0.000 C 
ATOM     37  H   UNL     1      -0.218  -7.567  18.439  0.00  0.00    +0.000 HD
ATOM     38  H   UNL     1      -0.605  -7.553  20.174  0.00  0.00    +0.000 HD
ATOM     39  H   UNL     1      -0.064  -9.042  19.405  0.00  0.00    +0.000 HD
ENDBRANCH  33  36
ENDBRANCH  27  33
ENDBRANCH  26  27
ENDBRANCH   8  26
TORSDOF 8
ENDMDL
MODEL 6
REMARK VINA RESULT:    -4.482     10.030     12.819
REMARK INTER + INTRA:          -6.908
REMARK INTER:                  -6.598
REMARK INTRA:                  -0.311
REMARK UNBOUND:                -0.724
REMARK  Name = 125098
REMARK  8 active torsions:
REMARK  status: ('A' for Active; 'I' for Inactive)
REMARK    1  A    between atoms: O_1  and  C_11
REMARK    2  A    between atoms: O_1  and  C_13
REMARK    3  A    between atoms: O_2  and  C_12
REMARK    4  A    between atoms: C_5  and  C_10
REMARK    5  A    between atoms: C_10  and  C_12
REMARK    6  A    between atoms: C_13  and  C_14
REMARK    7  A    between atoms: C_13  and  C_15
REMARK    8  A    between atoms: C_14  and  C_16
REMARK                            x       y       z     vdW  Elec       q    Type
REMARK                         _______ _______ _______ _____ _____    ______ ____
ROOT
ATOM      1  O   UNL     1      13.228 -12.900  -4.465  0.00  0.00    +0.000 OA
ATOM      2  N   UNL     1      15.111 -13.538  -3.252  0.00  0.00    +0.000 N 
ATOM      3  C   UNL     1      16.421 -13.168  -2.673  0.00  0.00    +0.000 C 
ATOM      4  C   UNL     1      16.713 -13.964  -1.393  0.00  0.00    +0.000 C 
ATOM      5  C   UNL     1      16.485 -15.464  -1.562  0.00  0.00    +0.000 C 
ATOM      6  C   UNL     1      15.079 -15.728  -2.085  0.00  0.00    +0.000 C 
ATOM      7  C   UNL     1      14.819 -14.968  -3.381  0.00  0.00    +0.000 C 
ATOM      8  C   UNL     1      14.243 -12.604  -3.836  0.00  0.00    +0.000 C 
ATOM      9  H   UNL     1      16.390 -12.112  -2.381  0.00  0.00    +0.000 HD
ATOM     10  H   UNL     1      16.047 -13.602  -0.599  0.00  0.00    +0.000 HD
ATOM     11  H   UNL     1      17.738 -13.778  -1.051  0.00  0.00    +0.000 HD
ATOM     12  H   UNL     1      16.621 -15.967  -0.598  0.00  0.00    +0.000 HD
ATOM     13  H   UNL     1      17.226 -15.886  -2.249  0.00  0.00    +0.000 HD
ATOM     14  H   UNL     1      14.937 -16.802  -2.250  0.00  0.00    +0.000 HD
ATOM     15  H   UNL     1      14.348 -15.417  -1.329  0.00  0.00    +0.000 HD
ATOM     16  H   UNL     1      15.451 -15.359  -4.186  0.00  0.00    +0.000 HD
ATOM     17  H   UNL     1      13.780 -15.118  -3.689  0.00  0.00    +0.000 HD
ENDROOT
BRANCH   3  18
ATOM     18  C   UNL     1      17.533 -13.314  -3.716  0.00  0.00    +0.000 C 
ATOM     19  H   UNL     1      17.520 -12.484  -4.432  0.00  0.00    +0.000 HD
ATOM     20  H   UNL     1      17.370 -14.220  -4.313  0.00  0.00    +0.000 HD
BRANCH  18  21
ATOM     21  C   UNL     1      18.899 -13.378  -3.063  0.00  0.00    +0.000 C 
ATOM     22  H   UNL     1      18.858 -13.192  -1.988  0.00  0.00    +0.000 HD
ATOM     23  H   UNL     1      19.395 -14.337  -3.240  0.00  0.00    +0.000 HD
BRANCH  21  24
ATOM     24  O   UNL     1      19.708 -12.347  -3.611  0.00  0.00    +0.000 OA
ATOM     25  H   UNL     1      20.624 -12.673  -3.637  0.00  0.00    +0.000 HD
ENDBRANCH  21  24
ENDBRANCH  18  21
ENDBRANCH   3  18
BRANCH   8  26
ATOM     26  O   UNL     1      14.646 -11.311  -3.638  0.00  0.00    +0.000 OA
BRANCH  26  27
ATOM     27  C   UNL     1      13.758 -10.291  -4.110  0.00  0.00    +0.000 C 
ATOM     28  H   UNL     1      13.079 -10.736  -4.850  0.00  0.00    +0.000 HD
BRANCH  27  29
ATOM     29  C   UNL     1      14.574  -9.206  -4.799  0.00  0.00    +0.000 C 
ATOM     30  H   UNL     1      13.987  -8.288  -4.915  0.00  0.00    +0.000 HD
ATOM     31  H   UNL     1      15.442  -8.943  -4.184  0.00  0.00    +0.000 HD
ATOM     32  H   UNL     1      14.939  -9.521  -5.779  0.00  0.00    +0.000 HD
ENDBRANCH  27  29
BRANCH  27  33
ATOM     33  C   UNL     1      12.971  -9.725  -2.926  0.00  0.00    +0.000 C 
ATOM     34  H   UNL     1      13.424 -10.013  -1.972  0.00  0.00    +0.000 HD
ATOM     35  H   UNL     1      13.000  -8.628  -2.944  0.00  0.00    +0.000 HD
BRANCH  33  36
ATOM     36  C   UNL     1      11.525 -10.203  -2.913  0.00  0.00    +0.000 C 
ATOM     37  H   UNL     1      10.831  -9.368  -3.049  0.00  0.00    +0.000 HD
ATOM     38  H   UNL     1      11.277 -10.719  -1.981  0.00  0.00    +0.000 HD
ATOM     39  H   UNL     1      11.361 -10.914  -3.730  0.00  0.00    +0.000 HD
ENDBRANCH  33  36
ENDBRANCH  27  33
ENDBRANCH  26  27
ENDBRANCH   8  26
TORSDOF 8
ENDMDL
MODEL 7
REMARK VINA RESULT:    -4.428     26.683     28.267
REMARK INTER + INTRA:          -6.835
REMARK INTER:                  -6.341
REMARK INTRA:                  -0.494
REMARK UNBOUND:                -0.724
REMARK  Name = 125098
REMARK  8 active torsions:
REMARK  status: ('A' for Active; 'I' for Inactive)
REMARK    1  A    between atoms: O_1  and  C_11
REMARK    2  A    between atoms: O_1  and  C_13
REMARK    3  A    between atoms: O_2  and  C_12
REMARK    4  A    between atoms: C_5  and  C_10
REMARK    5  A    between atoms: C_10  and  C_12
REMARK    6  A    between atoms: C_13  and  C_14
REMARK    7  A    between atoms: C_13  and  C_15
REMARK    8  A    between atoms: C_14  and  C_16
REMARK                            x       y       z     vdW  Elec       q    Type
REMARK                         _______ _______ _______ _____ _____    ______ ____
ROOT
ATOM      1  O   UNL     1       6.282  15.359  -1.990  0.00  0.00    +0.000 OA
ATOM      2  N   UNL     1       6.718  14.567  -4.136  0.00  0.00    +0.000 N 
ATOM      3  C   UNL     1       7.162  13.452  -5.001  0.00  0.00    +0.000 C 
ATOM      4  C   UNL     1       6.476  13.502  -6.375  0.00  0.00    +0.000 C 
ATOM      5  C   UNL     1       6.541  14.882  -7.021  0.00  0.00    +0.000 C 
ATOM      6  C   UNL     1       5.985  15.936  -6.072  0.00  0.00    +0.000 C 
ATOM      7  C   UNL     1       6.705  15.907  -4.730  0.00  0.00    +0.000 C 
ATOM      8  C   UNL     1       6.494  14.423  -2.760  0.00  0.00    +0.000 C 
ATOM      9  H   UNL     1       6.860  12.506  -4.538  0.00  0.00    +0.000 HD
ATOM     10  H   UNL     1       5.420  13.231  -6.246  0.00  0.00    +0.000 HD
ATOM     11  H   UNL     1       6.911  12.753  -7.048  0.00  0.00    +0.000 HD
ATOM     12  H   UNL     1       5.962  14.881  -7.952  0.00  0.00    +0.000 HD
ATOM     13  H   UNL     1       7.574  15.128  -7.290  0.00  0.00    +0.000 HD
ATOM     14  H   UNL     1       6.077  16.931  -6.522  0.00  0.00    +0.000 HD
ATOM     15  H   UNL     1       4.915  15.751  -5.915  0.00  0.00    +0.000 HD
ATOM     16  H   UNL     1       7.749  16.220  -4.849  0.00  0.00    +0.000 HD
ATOM     17  H   UNL     1       6.234  16.621  -4.047  0.00  0.00    +0.000 HD
ENDROOT
BRANCH   3  18
ATOM     18  C   UNL     1       8.689  13.431  -5.113  0.00  0.00    +0.000 C 
ATOM     19  H   UNL     1       9.162  13.401  -4.125  0.00  0.00    +0.000 HD
ATOM     20  H   UNL     1       9.044  14.359  -5.580  0.00  0.00    +0.000 HD
BRANCH  18  21
ATOM     21  C   UNL     1       9.168  12.242  -5.923  0.00  0.00    +0.000 C 
ATOM     22  H   UNL     1       8.917  11.288  -5.453  0.00  0.00    +0.000 HD
ATOM     23  H   UNL     1       8.771  12.252  -6.942  0.00  0.00    +0.000 HD
BRANCH  21  24
ATOM     24  O   UNL     1      10.586  12.288  -5.992  0.00  0.00    +0.000 OA
ATOM     25  H   UNL     1      10.929  12.151  -5.093  0.00  0.00    +0.000 HD
ENDBRANCH  21  24
ENDBRANCH  18  21
ENDBRANCH   3  18
BRANCH   8  26
ATOM     26  O   UNL     1       6.540  13.117  -2.350  0.00  0.00    +0.000 OA
BRANCH  26  27
ATOM     27  C   UNL     1       7.450  12.820  -1.285  0.00  0.00    +0.000 C 
ATOM     28  H   UNL     1       7.933  13.754  -0.969  0.00  0.00    +0.000 HD
BRANCH  27  29
ATOM     29  C   UNL     1       8.525  11.875  -1.804  0.00  0.00    +0.000 C 
ATOM     30  H   UNL     1       9.431  12.426  -2.083  0.00  0.00    +0.000 HD
ATOM     31  H   UNL     1       8.820  11.174  -1.016  0.00  0.00    +0.000 HD
ATOM     32  H   UNL     1       8.186  11.291  -2.663  0.00  0.00    +0.000 HD
ENDBRANCH  27  29
BRANCH  27  33
ATOM     33  C   UNL     1       6.675  12.192  -0.124  0.00  0.00    +0.000 C 
ATOM     34  H   UNL     1       5.637  11.983  -0.405  0.00  0.00    +0.000 HD
ATOM     35  H   UNL     1       7.109  11.219   0.137  0.00  0.00    +0.000 HD
BRANCH  33  36
ATOM     36  C   UNL     1       6.648  13.091   1.104  0.00  0.00    +0.000 C 
ATOM     37  H   UNL     1       7.199  12.641   1.936  0.00  0.00    +0.000 HD
ATOM     38  H   UNL     1       5.626  13.301   1.431  0.00  0.00    +0.000 HD
ATOM     39  H   UNL     1       7.117  14.053   0.872  0.00  0.00    +0.000 HD
ENDBRANCH  33  36
ENDBRANCH  27  33
ENDBRANCH  26  27
ENDBRANCH   8  26
TORSDOF 8
ENDMDL
MODEL 8
REMARK VINA RESULT:    -4.371     25.838     27.261
REMARK INTER + INTRA:          -6.756
REMARK INTER:                  -6.263
REMARK INTRA:                  -0.493
REMARK UNBOUND:                -0.724
REMARK  Name = 125098
REMARK  8 active torsions:
REMARK  status: ('A' for Active; 'I' for Inactive)
REMARK    1  A    between atoms: O_1  and  C_11
REMARK    2  A    between atoms: O_1  and  C_13
REMARK    3  A    between atoms: O_2  and  C_12
REMARK    4  A    between atoms: C_5  and  C_10
REMARK    5  A    between atoms: C_10  and  C_12
REMARK    6  A    between atoms: C_13  and  C_14
REMARK    7  A    between atoms: C_13  and  C_15
REMARK    8  A    between atoms: C_14  and  C_16
REMARK                            x       y       z     vdW  Elec       q    Type
REMARK                         _______ _______ _______ _____ _____    ______ ____
ROOT
ATOM      1  O   UNL     1      17.733  11.592  -0.032  0.00  0.00    +0.000 OA
ATOM      2  N   UNL     1      19.142   9.740   0.048  0.00  0.00    +0.000 N 
ATOM      3  C   UNL     1      19.398   8.373   0.553  0.00  0.00    +0.000 C 
ATOM      4  C   UNL     1      20.231   7.555  -0.445  0.00  0.00    +0.000 C 
ATOM      5  C   UNL     1      21.467   8.300  -0.939  0.00  0.00    +0.000 C 
ATOM      6  C   UNL     1      21.073   9.656  -1.509  0.00  0.00    +0.000 C 
ATOM      7  C   UNL     1      20.288  10.476  -0.492  0.00  0.00    +0.000 C 
ATOM      8  C   UNL     1      17.922  10.406   0.232  0.00  0.00    +0.000 C 
ATOM      9  H   UNL     1      18.440   7.852   0.658  0.00  0.00    +0.000 HD
ATOM     10  H   UNL     1      19.600   7.320  -1.313  0.00  0.00    +0.000 HD
ATOM     11  H   UNL     1      20.524   6.595  -0.003  0.00  0.00    +0.000 HD
ATOM     12  H   UNL     1      21.970   7.707  -1.711  0.00  0.00    +0.000 HD
ATOM     13  H   UNL     1      22.183   8.431  -0.121  0.00  0.00    +0.000 HD
ATOM     14  H   UNL     1      21.968  10.207  -1.818  0.00  0.00    +0.000 HD
ATOM     15  H   UNL     1      20.460   9.506  -2.406  0.00  0.00    +0.000 HD
ATOM     16  H   UNL     1      20.928  10.750   0.354  0.00  0.00    +0.000 HD
ATOM     17  H   UNL     1      19.955  11.410  -0.956  0.00  0.00    +0.000 HD
ENDROOT
BRANCH   3  18
ATOM     18  C   UNL     1      20.039   8.422   1.943  0.00  0.00    +0.000 C 
ATOM     19  H   UNL     1      19.382   8.918   2.668  0.00  0.00    +0.000 HD
ATOM     20  H   UNL     1      20.954   9.028   1.913  0.00  0.00    +0.000 HD
BRANCH  18  21
ATOM     21  C   UNL     1      20.368   7.032   2.450  0.00  0.00    +0.000 C 
ATOM     22  H   UNL     1      20.992   6.470   1.752  0.00  0.00    +0.000 HD
ATOM     23  H   UNL     1      20.859   7.057   3.427  0.00  0.00    +0.000 HD
BRANCH  21  24
ATOM     24  O   UNL     1      19.156   6.301   2.574  0.00  0.00    +0.000 OA
ATOM     25  H   UNL     1      18.449   6.831   2.169  0.00  0.00    +0.000 HD
ENDBRANCH  21  24
ENDBRANCH  18  21
ENDBRANCH   3  18
BRANCH   8  26
ATOM     26  O   UNL     1      16.948   9.593   0.747  0.00  0.00    +0.000 OA
BRANCH  26  27
ATOM     27  C   UNL     1      16.359  10.014   1.983  0.00  0.00    +0.000 C 
ATOM     28  H   UNL     1      16.897  10.903   2.339  0.00  0.00    +0.000 HD
BRANCH  27  29
ATOM     29  C   UNL     1      16.528   8.907   3.013  0.00  0.00    +0.000 C 
ATOM     30  H   UNL     1      17.575   8.812   3.321  0.00  0.00    +0.000 HD
ATOM     31  H   UNL     1      15.960   9.148   3.919  0.00  0.00    +0.000 HD
ATOM     32  H   UNL     1      16.177   7.939   2.645  0.00  0.00    +0.000 HD
ENDBRANCH  27  29
BRANCH  27  33
ATOM     33  C   UNL     1      14.881  10.334   1.750  0.00  0.00    +0.000 C 
ATOM     34  H   UNL     1      14.682  10.553   0.695  0.00  0.00    +0.000 HD
ATOM     35  H   UNL     1      14.263   9.459   1.988  0.00  0.00    +0.000 HD
BRANCH  33  36
ATOM     36  C   UNL     1      14.414  11.532   2.566  0.00  0.00    +0.000 C 
ATOM     37  H   UNL     1      13.422  11.358   2.993  0.00  0.00    +0.000 HD
ATOM     38  H   UNL     1      14.383  12.445   1.964  0.00  0.00    +0.000 HD
ATOM     39  H   UNL     1      15.110  11.714   3.392  0.00  0.00    +0.000 HD
ENDBRANCH  33  36
ENDBRANCH  27  33
ENDBRANCH  26  27
ENDBRANCH   8  26
TORSDOF 8
ENDMDL
MODEL 9
REMARK VINA RESULT:    -4.367      9.687     11.672
REMARK INTER + INTRA:          -6.750
REMARK INTER:                  -6.087
REMARK INTRA:                  -0.663
REMARK UNBOUND:                -0.724
REMARK  Name = 125098
REMARK  8 active torsions:
REMARK  status: ('A' for Active; 'I' for Inactive)
REMARK    1  A    between atoms: O_1  and  C_11
REMARK    2  A    between atoms: O_1  and  C_13
REMARK    3  A    between atoms: O_2  and  C_12
REMARK    4  A    between atoms: C_5  and  C_10
REMARK    5  A    between atoms: C_10  and  C_12
REMARK    6  A    between atoms: C_13  and  C_14
REMARK    7  A    between atoms: C_13  and  C_15
REMARK    8  A    between atoms: C_14  and  C_16
REMARK                            x       y       z     vdW  Elec       q    Type
REMARK                         _______ _______ _______ _____ _____    ______ ____
ROOT
ATOM      1  O   UNL     1      12.884  -8.942  -6.920  0.00  0.00    +0.000 OA
ATOM      2  N   UNL     1      10.716  -9.158  -7.745  0.00  0.00    +0.000 N 
ATOM      3  C   UNL     1       9.436  -9.897  -7.741  0.00  0.00    +0.000 C 
ATOM      4  C   UNL     1       8.251  -8.966  -8.035  0.00  0.00    +0.000 C 
ATOM      5  C   UNL     1       8.479  -8.083  -9.259  0.00  0.00    +0.000 C 
ATOM      6  C   UNL     1       9.785  -7.311  -9.115  0.00  0.00    +0.000 C 
ATOM      7  C   UNL     1      10.959  -8.251  -8.870  0.00  0.00    +0.000 C 
ATOM      8  C   UNL     1      11.755  -9.424  -6.841  0.00  0.00    +0.000 C 
ATOM      9  H   UNL     1       9.268 -10.304  -6.737  0.00  0.00    +0.000 HD
ATOM     10  H   UNL     1       8.096  -8.315  -7.165  0.00  0.00    +0.000 HD
ATOM     11  H   UNL     1       7.328  -9.545  -8.160  0.00  0.00    +0.000 HD
ATOM     12  H   UNL     1       7.645  -7.381  -9.367  0.00  0.00    +0.000 HD
ATOM     13  H   UNL     1       8.503  -8.693 -10.168  0.00  0.00    +0.000 HD
ATOM     14  H   UNL     1       9.968  -6.715 -10.017  0.00  0.00    +0.000 HD
ATOM     15  H   UNL     1       9.699  -6.609  -8.276  0.00  0.00    +0.000 HD
ATOM     16  H   UNL     1      11.144  -8.871  -9.755  0.00  0.00    +0.000 HD
ATOM     17  H   UNL     1      11.866  -7.664  -8.696  0.00  0.00    +0.000 HD
ENDROOT
BRANCH   3  18
ATOM     18  C   UNL     1       9.495 -11.086  -8.703  0.00  0.00    +0.000 C 
ATOM     19  H   UNL     1      10.503 -11.220  -9.112  0.00  0.00    +0.000 HD
ATOM     20  H   UNL     1       8.850 -10.898  -9.571  0.00  0.00    +0.000 HD
BRANCH  18  21
ATOM     21  C   UNL     1       9.066 -12.371  -8.023  0.00  0.00    +0.000 C 
ATOM     22  H   UNL     1       7.980 -12.479  -7.979  0.00  0.00    +0.000 HD
ATOM     23  H   UNL     1       9.492 -13.255  -8.508  0.00  0.00    +0.000 HD
BRANCH  21  24
ATOM     24  O   UNL     1       9.515 -12.338  -6.676  0.00  0.00    +0.000 OA
ATOM     25  H   UNL     1       9.253 -11.480  -6.299  0.00  0.00    +0.000 HD
ENDBRANCH  21  24
ENDBRANCH  18  21
ENDBRANCH   3  18
BRANCH   8  26
ATOM     26  O   UNL     1      11.383 -10.291  -5.848  0.00  0.00    +0.000 OA
BRANCH  26  27
ATOM     27  C   UNL     1      12.285 -10.412  -4.742  0.00  0.00    +0.000 C 
ATOM     28  H   UNL     1      13.300 -10.184  -5.095  0.00  0.00    +0.000 HD
BRANCH  27  29
ATOM     29  C   UNL     1      12.263 -11.850  -4.243  0.00  0.00    +0.000 C 
ATOM     30  H   UNL     1      13.070 -12.029  -3.524  0.00  0.00    +0.000 HD
ATOM     31  H   UNL     1      11.326 -12.047  -3.710  0.00  0.00    +0.000 HD
ATOM     32  H   UNL     1      12.345 -12.574  -5.057  0.00  0.00    +0.000 HD
ENDBRANCH  27  29
BRANCH  27  33
ATOM     33  C   UNL     1      11.863  -9.437  -3.642  0.00  0.00    +0.000 C 
ATOM     34  H   UNL     1      12.694  -8.790  -3.341  0.00  0.00    +0.000 HD
ATOM     35  H   UNL     1      11.086  -8.759  -4.016  0.00  0.00    +0.000 HD
BRANCH  33  36
ATOM     36  C   UNL     1      11.365 -10.155  -2.395  0.00  0.00    +0.000 C 
ATOM     37  H   UNL     1      11.889  -9.805  -1.500  0.00  0.00    +0.000 HD
ATOM     38  H   UNL     1      11.490 -11.239  -2.473  0.00  0.00    +0.000 HD
ATOM     39  H   UNL     1      10.296  -9.962  -2.256  0.00  0.00    +0.000 HD
ENDBRANCH  33  36
ENDBRANCH  27  33
ENDBRANCH  26  27
ENDBRANCH   8  26
TORSDOF 8
ENDMDL
MODEL 10
REMARK VINA RESULT:    -4.283     26.992     29.245
REMARK INTER + INTRA:          -6.634
REMARK INTER:                  -5.910
REMARK INTRA:                  -0.724
REMARK UNBOUND:                -0.724
REMARK  Name = 125098
REMARK  8 active torsions:
REMARK  status: ('A' for Active; 'I' for Inactive)
REMARK    1  A    between atoms: O_1  and  C_11
REMARK    2  A    between atoms: O_1  and  C_13
REMARK    3  A    between atoms: O_2  and  C_12
REMARK    4  A    between atoms: C_5  and  C_10
REMARK    5  A    between atoms: C_10  and  C_12
REMARK    6  A    between atoms: C_13  and  C_14
REMARK    7  A    between atoms: C_13  and  C_15
REMARK    8  A    between atoms: C_14  and  C_16
REMARK                            x       y       z     vdW  Elec       q    Type
REMARK                         _______ _______ _______ _____ _____    ______ ____
ROOT
ATOM      1  O   UNL     1       9.930  11.640  -6.382  0.00  0.00    +0.000 OA
ATOM      2  N   UNL     1       9.124  13.772  -6.858  0.00  0.00    +0.000 N 
ATOM      3  C   UNL     1       8.186  14.867  -6.526  0.00  0.00    +0.000 C 
ATOM      4  C   UNL     1       8.782  16.239  -6.872  0.00  0.00    +0.000 C 
ATOM      5  C   UNL     1       9.364  16.296  -8.281  0.00  0.00    +0.000 C 
ATOM      6  C   UNL     1      10.375  15.173  -8.480  0.00  0.00    +0.000 C 
ATOM      7  C   UNL     1       9.756  13.813  -8.179  0.00  0.00    +0.000 C 
ATOM      8  C   UNL     1       9.283  12.634  -6.055  0.00  0.00    +0.000 C 
ATOM      9  H   UNL     1       8.014  14.867  -5.444  0.00  0.00    +0.000 HD
ATOM     10  H   UNL     1       9.586  16.458  -6.157  0.00  0.00    +0.000 HD
ATOM     11  H   UNL     1       8.030  17.027  -6.746  0.00  0.00    +0.000 HD
ATOM     12  H   UNL     1       9.853  17.265  -8.438  0.00  0.00    +0.000 HD
ATOM     13  H   UNL     1       8.565  16.217  -9.026  0.00  0.00    +0.000 HD
ATOM     14  H   UNL     1      10.754  15.190  -9.507  0.00  0.00    +0.000 HD
ATOM     15  H   UNL     1      11.232  15.338  -7.816  0.00  0.00    +0.000 HD
ATOM     16  H   UNL     1       8.983  13.573  -8.918  0.00  0.00    +0.000 HD
ATOM     17  H   UNL     1      10.525  13.038  -8.257  0.00  0.00    +0.000 HD
ENDROOT
BRANCH   3  18
ATOM     18  C   UNL     1       6.829  14.637  -7.197  0.00  0.00    +0.000 C 
ATOM     19  H   UNL     1       6.910  13.932  -8.033  0.00  0.00    +0.000 HD
ATOM     20  H   UNL     1       6.464  15.573  -7.638  0.00  0.00    +0.000 HD
BRANCH  18  21
ATOM     21  C   UNL     1       5.805  14.111  -6.210  0.00  0.00    +0.000 C 
ATOM     22  H   UNL     1       6.087  14.304  -5.173  0.00  0.00    +0.000 HD
ATOM     23  H   UNL     1       4.809  14.524  -6.392  0.00  0.00    +0.000 HD
BRANCH  21  24
ATOM     24  O   UNL     1       5.737  12.698  -6.344  0.00  0.00    +0.000 OA
ATOM     25  H   UNL     1       6.461  12.317  -5.820  0.00  0.00    +0.000 HD
ENDBRANCH  21  24
ENDBRANCH  18  21
ENDBRANCH   3  18
BRANCH   8  26
ATOM     26  O   UNL     1       8.633  12.738  -4.854  0.00  0.00    +0.000 OA
BRANCH  26  27
ATOM     27  C   UNL     1       9.458  12.710  -3.683  0.00  0.00    +0.000 C 
ATOM     28  H   UNL     1      10.418  12.245  -3.945  0.00  0.00    +0.000 HD
BRANCH  27  29
ATOM     29  C   UNL     1       8.782  11.852  -2.624  0.00  0.00    +0.000 C 
ATOM     30  H   UNL     1       9.196  12.055  -1.630  0.00  0.00    +0.000 HD
ATOM     31  H   UNL     1       7.715  12.095  -2.569  0.00  0.00    +0.000 HD
ATOM     32  H   UNL     1       8.872  10.783  -2.834  0.00  0.00    +0.000 HD
ENDBRANCH  27  29
BRANCH  27  33
ATOM     33  C   UNL     1       9.669  14.141  -3.185  0.00  0.00    +0.000 C 
ATOM     34  H   UNL     1       8.870  14.806  -3.530  0.00  0.00    +0.000 HD
ATOM     35  H   UNL     1       9.620  14.170  -2.089  0.00  0.00    +0.000 HD
BRANCH  33  36
ATOM     36  C   UNL     1      10.993  14.727  -3.658  0.00  0.00    +0.000 C 
ATOM     37  H   UNL     1      11.632  14.995  -2.811  0.00  0.00    +0.000 HD
ATOM     38  H   UNL     1      10.844  15.614  -4.280  0.00  0.00    +0.000 HD
ATOM     39  H   UNL     1      11.529  13.992  -4.266  0.00  0.00    +0.000 HD
ENDBRANCH  33  36
ENDBRANCH  27  33
ENDBRANCH  26  27
ENDBRANCH   8  26
TORSDOF 8
ENDMDL
