MODEL 1
REMARK VINA RESULT:    -3.125      0.000      0.000
REMARK INTER + INTRA:          -3.490
REMARK INTER:                  -3.490
REMARK INTRA:                   0.000
REMARK UNBOUND:                 0.000
REMARK  Name = 1032
REMARK  3 active torsions:
REMARK  status: ('A' for Active; 'I' for Inactive)
REMARK    1  A    between atoms: O_1  and  C_5
REMARK    2  A    between atoms: C_3  and  C_4
REMARK    3  A    between atoms: C_3  and  C_5
REMARK                            x       y       z     vdW  Elec       q    Type
REMARK                         _______ _______ _______ _____ _____    ______ ____
ROOT
ATOM      1  C   UNL     1       0.152  -5.340  16.345  0.00  0.00    +0.000 C 
ATOM      2  H   UNL     1      -0.717  -4.774  16.696  0.00  0.00    +0.000 HD
ATOM      3  H   UNL     1       0.818  -5.540  17.191  0.00  0.00    +0.000 HD
ENDROOT
BRANCH   1   4
ATOM      4  C   UNL     1      -0.311  -6.657  15.748  0.00  0.00    +0.000 C 
ATOM      5  H   UNL     1      -0.958  -6.477  14.884  0.00  0.00    +0.000 HD
ATOM      6  H   UNL     1       0.540  -7.262  15.418  0.00  0.00    +0.000 HD
ATOM      7  H   UNL     1      -0.874  -7.245  16.480  0.00  0.00    +0.000 HD
ENDBRANCH   1   4
BRANCH   1   9
ATOM      8  O   UNL     1       1.535  -3.482  15.584  0.00  0.00    +0.000 OA
ATOM      9  C   UNL     1       0.897  -4.496  15.341  0.00  0.00    +0.000 C 
BRANCH   9  10
ATOM     10  O   UNL     1       0.762  -5.024  14.098  0.00  0.00    +0.000 OA
ATOM     11  H   UNL     1       1.620  -5.061  13.622  0.00  0.00    +0.000 HD
ENDBRANCH   9  10
ENDBRANCH   1   9
TORSDOF 3
ENDMDL
MODEL 2
REMARK VINA RESULT:    -3.072     20.484     20.837
REMARK INTER + INTRA:          -3.431
REMARK INTER:                  -3.431
REMARK INTRA:                   0.000
REMARK UNBOUND:                 0.000
REMARK  Name = 1032
REMARK  3 active torsions:
REMARK  status: ('A' for Active; 'I' for Inactive)
REMARK    1  A    between atoms: O_1  and  C_5
REMARK    2  A    between atoms: C_3  and  C_4
REMARK    3  A    between atoms: C_3  and  C_5
REMARK                            x       y       z     vdW  Elec       q    Type
REMARK                         _______ _______ _______ _____ _____    ______ ____
ROOT
ATOM      1  C   UNL     1     -18.821  -1.949   6.720  0.00  0.00    +0.000 C 
ATOM      2  H   UNL     1     -19.751  -1.378   6.626  0.00  0.00    +0.000 HD
ATOM      3  H   UNL     1     -18.960  -2.742   7.462  0.00  0.00    +0.000 HD
ENDROOT
BRANCH   1   4
ATOM      4  C   UNL     1     -18.472  -2.569   5.379  0.00  0.00    +0.000 C 
ATOM      5  H   UNL     1     -18.191  -1.792   4.662  0.00  0.00    +0.000 HD
ATOM      6  H   UNL     1     -17.634  -3.267   5.474  0.00  0.00    +0.000 HD
ATOM      7  H   UNL     1     -19.323  -3.123   4.968  0.00  0.00    +0.000 HD
ENDBRANCH   1   4
BRANCH   1   9
ATOM      8  O   UNL     1     -17.163  -1.089   8.286  0.00  0.00    +0.000 OA
ATOM      9  C   UNL     1     -17.740  -1.019   7.211  0.00  0.00    +0.000 C 
BRANCH   9  10
ATOM     10  O   UNL     1     -17.484  -0.068   6.277  0.00  0.00    +0.000 OA
ATOM     11  H   UNL     1     -17.014   0.703   6.660  0.00  0.00    +0.000 HD
ENDBRANCH   9  10
ENDBRANCH   1   9
TORSDOF 3
ENDMDL
MODEL 3
REMARK VINA RESULT:    -2.987     18.353     18.575
REMARK INTER + INTRA:          -3.336
REMARK INTER:                  -3.336
REMARK INTRA:                   0.000
REMARK UNBOUND:                 0.000
REMARK  Name = 1032
REMARK  3 active torsions:
REMARK  status: ('A' for Active; 'I' for Inactive)
REMARK    1  A    between atoms: O_1  and  C_5
REMARK    2  A    between atoms: C_3  and  C_4
REMARK    3  A    between atoms: C_3  and  C_5
REMARK                            x       y       z     vdW  Elec       q    Type
REMARK                         _______ _______ _______ _____ _____    ______ ____
ROOT
ATOM      1  C   UNL     1       9.029 -10.874  -0.763  0.00  0.00    +0.000 C 
ATOM      2  H   UNL     1       9.712 -11.483  -0.162  0.00  0.00    +0.000 HD
ATOM      3  H   UNL     1       9.307 -10.958  -1.819  0.00  0.00    +0.000 HD
ENDROOT
BRANCH   1   4
ATOM      4  C   UNL     1       7.609 -11.376  -0.576  0.00  0.00    +0.000 C 
ATOM      5  H   UNL     1       7.568 -12.462  -0.708  0.00  0.00    +0.000 HD
ATOM      6  H   UNL     1       7.235 -11.139   0.426  0.00  0.00    +0.000 HD
ATOM      7  H   UNL     1       6.930 -10.918  -1.303  0.00  0.00    +0.000 HD
ENDBRANCH   1   4
BRANCH   1   9
ATOM      8  O   UNL     1       8.375  -8.536  -0.544  0.00  0.00    +0.000 OA
ATOM      9  C   UNL     1       9.179  -9.434  -0.342  0.00  0.00    +0.000 C 
BRANCH   9  10
ATOM     10  O   UNL     1      10.358  -9.259   0.309  0.00  0.00    +0.000 OA
ATOM     11  H   UNL     1      10.501  -9.946   0.995  0.00  0.00    +0.000 HD
ENDBRANCH   9  10
ENDBRANCH   1   9
TORSDOF 3
ENDMDL
MODEL 4
REMARK VINA RESULT:    -2.977     14.891     15.530
REMARK INTER + INTRA:          -3.325
REMARK INTER:                  -3.325
REMARK INTRA:                   0.000
REMARK UNBOUND:                 0.000
REMARK  Name = 1032
REMARK  3 active torsions:
REMARK  status: ('A' for Active; 'I' for Inactive)
REMARK    1  A    between atoms: O_1  and  C_5
REMARK    2  A    between atoms: C_3  and  C_4
REMARK    3  A    between atoms: C_3  and  C_5
REMARK                            x       y       z     vdW  Elec       q    Type
REMARK                         _______ _______ _______ _____ _____    ______ ____
ROOT
ATOM      1  C   UNL     1       3.975  -3.503   0.612  0.00  0.00    +0.000 C 
ATOM      2  H   UNL     1       3.327  -3.160   1.426  0.00  0.00    +0.000 HD
ATOM      3  H   UNL     1       3.744  -4.549   0.385  0.00  0.00    +0.000 HD
ENDROOT
BRANCH   1   4
ATOM      4  C   UNL     1       3.725  -2.654  -0.622  0.00  0.00    +0.000 C 
ATOM      5  H   UNL     1       4.063  -1.627  -0.452  0.00  0.00    +0.000 HD
ATOM      6  H   UNL     1       4.262  -3.052  -1.490  0.00  0.00    +0.000 HD
ATOM      7  H   UNL     1       2.659  -2.627  -0.872  0.00  0.00    +0.000 HD
ENDBRANCH   1   4
BRANCH   1   9
ATOM      8  O   UNL     1       6.300  -2.777   0.543  0.00  0.00    +0.000 OA
ATOM      9  C   UNL     1       5.407  -3.419   1.075  0.00  0.00    +0.000 C 
BRANCH   9  10
ATOM     10  O   UNL     1       5.580  -4.170   2.192  0.00  0.00    +0.000 OA
ATOM     11  H   UNL     1       5.852  -3.624   2.961  0.00  0.00    +0.000 HD
ENDBRANCH   9  10
ENDBRANCH   1   9
TORSDOF 3
ENDMDL
MODEL 5
REMARK VINA RESULT:    -2.976     16.721     17.008
REMARK INTER + INTRA:          -3.323
REMARK INTER:                  -3.323
REMARK INTRA:                   0.000
REMARK UNBOUND:                 0.000
REMARK  Name = 1032
REMARK  3 active torsions:
REMARK  status: ('A' for Active; 'I' for Inactive)
REMARK    1  A    between atoms: O_1  and  C_5
REMARK    2  A    between atoms: C_3  and  C_4
REMARK    3  A    between atoms: C_3  and  C_5
REMARK                            x       y       z     vdW  Elec       q    Type
REMARK                         _______ _______ _______ _____ _____    ______ ____
ROOT
ATOM      1  C   UNL     1     -14.549  -0.082  11.102  0.00  0.00    +0.000 C 
ATOM      2  H   UNL     1     -13.976  -0.786  11.714  0.00  0.00    +0.000 HD
ATOM      3  H   UNL     1     -15.435   0.241  11.659  0.00  0.00    +0.000 HD
ENDROOT
BRANCH   1   4
ATOM      4  C   UNL     1     -13.687   1.126  10.783  0.00  0.00    +0.000 C 
ATOM      5  H   UNL     1     -14.236   1.829  10.149  0.00  0.00    +0.000 HD
ATOM      6  H   UNL     1     -13.388   1.649  11.697  0.00  0.00    +0.000 HD
ATOM      7  H   UNL     1     -12.774   0.830  10.255  0.00  0.00    +0.000 HD
ENDBRANCH   1   4
BRANCH   1   9
ATOM      8  O   UNL     1     -16.052  -1.410   9.717  0.00  0.00    +0.000 OA
ATOM      9  C   UNL     1     -15.005  -0.797   9.854  0.00  0.00    +0.000 C 
BRANCH   9  10
ATOM     10  O   UNL     1     -14.073  -0.665   8.876  0.00  0.00    +0.000 OA
ATOM     11  H   UNL     1     -13.899  -1.516   8.420  0.00  0.00    +0.000 HD
ENDBRANCH   9  10
ENDBRANCH   1   9
TORSDOF 3
ENDMDL
MODEL 6
REMARK VINA RESULT:    -2.909     19.834     20.205
REMARK INTER + INTRA:          -3.249
REMARK INTER:                  -3.249
REMARK INTRA:                   0.000
REMARK UNBOUND:                 0.000
REMARK  Name = 1032
REMARK  3 active torsions:
REMARK  status: ('A' for Active; 'I' for Inactive)
REMARK    1  A    between atoms: O_1  and  C_5
REMARK    2  A    between atoms: C_3  and  C_4
REMARK    3  A    between atoms: C_3  and  C_5
REMARK                            x       y       z     vdW  Elec       q    Type
REMARK                         _______ _______ _______ _____ _____    ______ ____
ROOT
ATOM      1  C   UNL     1     -17.892  -1.204   7.877  0.00  0.00    +0.000 C 
ATOM      2  H   UNL     1     -16.945  -1.209   7.329  0.00  0.00    +0.000 HD
ATOM      3  H   UNL     1     -18.052  -0.211   8.310  0.00  0.00    +0.000 HD
ENDROOT
BRANCH   1   4
ATOM      4  C   UNL     1     -19.029  -1.524   6.922  0.00  0.00    +0.000 C 
ATOM      5  H   UNL     1     -19.993  -1.303   7.390  0.00  0.00    +0.000 HD
ATOM      6  H   UNL     1     -18.950  -0.933   6.003  0.00  0.00    +0.000 HD
ATOM      7  H   UNL     1     -19.020  -2.582   6.640  0.00  0.00    +0.000 HD
ENDBRANCH   1   4
BRANCH   1   9
ATOM      8  O   UNL     1     -18.166  -2.033  10.152  0.00  0.00    +0.000 OA
ATOM      9  C   UNL     1     -17.799  -2.206   9.000  0.00  0.00    +0.000 C 
BRANCH   9  10
ATOM     10  O   UNL     1     -17.238  -3.357   8.550  0.00  0.00    +0.000 OA
ATOM     11  H   UNL     1     -16.623  -3.197   7.802  0.00  0.00    +0.000 HD
ENDBRANCH   9  10
ENDBRANCH   1   9
TORSDOF 3
ENDMDL
MODEL 7
REMARK VINA RESULT:    -2.889     26.175     26.667
REMARK INTER + INTRA:          -3.226
REMARK INTER:                  -3.226
REMARK INTRA:                   0.000
REMARK UNBOUND:                 0.000
REMARK  Name = 1032
REMARK  3 active torsions:
REMARK  status: ('A' for Active; 'I' for Inactive)
REMARK    1  A    between atoms: O_1  and  C_5
REMARK    2  A    between atoms: C_3  and  C_4
REMARK    3  A    between atoms: C_3  and  C_5
REMARK                            x       y       z     vdW  Elec       q    Type
REMARK                         _______ _______ _______ _____ _____    ______ ____
ROOT
ATOM      1  C   UNL     1     -13.803   9.044  -1.998  0.00  0.00    +0.000 C 
ATOM      2  H   UNL     1     -13.566   8.691  -0.989  0.00  0.00    +0.000 HD
ATOM      3  H   UNL     1     -14.868   8.882  -2.196  0.00  0.00    +0.000 HD
ENDROOT
BRANCH   1   4
ATOM      4  C   UNL     1     -13.493  10.527  -2.099  0.00  0.00    +0.000 C 
ATOM      5  H   UNL     1     -12.533  10.749  -1.621  0.00  0.00    +0.000 HD
ATOM      6  H   UNL     1     -13.436  10.847  -3.145  0.00  0.00    +0.000 HD
ATOM      7  H   UNL     1     -14.267  11.125  -1.608  0.00  0.00    +0.000 HD
ENDBRANCH   1   4
BRANCH   1   9
ATOM      8  O   UNL     1     -13.393   7.834  -4.074  0.00  0.00    +0.000 OA
ATOM      9  C   UNL     1     -13.004   8.231  -2.986  0.00  0.00    +0.000 C 
BRANCH   9  10
ATOM     10  O   UNL     1     -11.762   7.991  -2.495  0.00  0.00    +0.000 OA
ATOM     11  H   UNL     1     -11.165   7.615  -3.178  0.00  0.00    +0.000 HD
ENDBRANCH   9  10
ENDBRANCH   1   9
TORSDOF 3
ENDMDL
MODEL 8
REMARK VINA RESULT:    -2.867     15.848     16.545
REMARK INTER + INTRA:          -3.202
REMARK INTER:                  -3.202
REMARK INTRA:                   0.000
REMARK UNBOUND:                 0.000
REMARK  Name = 1032
REMARK  3 active torsions:
REMARK  status: ('A' for Active; 'I' for Inactive)
REMARK    1  A    between atoms: O_1  and  C_5
REMARK    2  A    between atoms: C_3  and  C_4
REMARK    3  A    between atoms: C_3  and  C_5
REMARK                            x       y       z     vdW  Elec       q    Type
REMARK                         _______ _______ _______ _____ _____    ______ ____
ROOT
ATOM      1  C   UNL     1       4.142  -2.604  -1.059  0.00  0.00    +0.000 C 
ATOM      2  H   UNL     1       4.299  -1.543  -0.839  0.00  0.00    +0.000 HD
ATOM      3  H   UNL     1       3.089  -2.766  -1.314  0.00  0.00    +0.000 HD
ENDROOT
BRANCH   1   4
ATOM      4  C   UNL     1       5.013  -3.010  -2.234  0.00  0.00    +0.000 C 
ATOM      5  H   UNL     1       6.064  -3.055  -1.931  0.00  0.00    +0.000 HD
ATOM      6  H   UNL     1       4.724  -3.994  -2.617  0.00  0.00    +0.000 HD
ATOM      7  H   UNL     1       4.924  -2.292  -3.057  0.00  0.00    +0.000 HD
ENDBRANCH   1   4
BRANCH   1   9
ATOM      8  O   UNL     1       3.977  -3.228   1.292  0.00  0.00    +0.000 OA
ATOM      9  C   UNL     1       4.460  -3.399   0.182  0.00  0.00    +0.000 C 
BRANCH   9  10
ATOM     10  O   UNL     1       5.378  -4.358  -0.102  0.00  0.00    +0.000 OA
ATOM     11  H   UNL     1       4.981  -5.256  -0.099  0.00  0.00    +0.000 HD
ENDBRANCH   9  10
ENDBRANCH   1   9
TORSDOF 3
ENDMDL
MODEL 9
REMARK VINA RESULT:    -2.756     26.639     27.047
REMARK INTER + INTRA:          -3.078
REMARK INTER:                  -3.078
REMARK INTRA:                   0.000
REMARK UNBOUND:                 0.000
REMARK  Name = 1032
REMARK  3 active torsions:
REMARK  status: ('A' for Active; 'I' for Inactive)
REMARK    1  A    between atoms: O_1  and  C_5
REMARK    2  A    between atoms: C_3  and  C_4
REMARK    3  A    between atoms: C_3  and  C_5
REMARK                            x       y       z     vdW  Elec       q    Type
REMARK                         _______ _______ _______ _____ _____    ______ ____
ROOT
ATOM      1  C   UNL     1     -13.122   8.878  -1.812  0.00  0.00    +0.000 C 
ATOM      2  H   UNL     1     -13.628   8.286  -1.042  0.00  0.00    +0.000 HD
ATOM      3  H   UNL     1     -12.075   9.022  -1.524  0.00  0.00    +0.000 HD
ENDROOT
BRANCH   1   4
ATOM      4  C   UNL     1     -13.182   8.138  -3.136  0.00  0.00    +0.000 C 
ATOM      5  H   UNL     1     -14.088   8.413  -3.685  0.00  0.00    +0.000 HD
ATOM      6  H   UNL     1     -12.316   8.379  -3.762  0.00  0.00    +0.000 HD
ATOM      7  H   UNL     1     -13.191   7.054  -2.982  0.00  0.00    +0.000 HD
ENDBRANCH   1   4
BRANCH   1   9
ATOM      8  O   UNL     1     -14.986  10.448  -1.799  0.00  0.00    +0.000 OA
ATOM      9  C   UNL     1     -13.788  10.229  -1.888  0.00  0.00    +0.000 C 
BRANCH   9  10
ATOM     10  O   UNL     1     -12.855  11.197  -2.073  0.00  0.00    +0.000 OA
ATOM     11  H   UNL     1     -12.033  11.014  -1.569  0.00  0.00    +0.000 HD
ENDBRANCH   9  10
ENDBRANCH   1   9
TORSDOF 3
ENDMDL
MODEL 10
REMARK VINA RESULT:    -2.740     17.781     18.343
REMARK INTER + INTRA:          -3.060
REMARK INTER:                  -3.060
REMARK INTRA:                   0.000
REMARK UNBOUND:                 0.000
REMARK  Name = 1032
REMARK  3 active torsions:
REMARK  status: ('A' for Active; 'I' for Inactive)
REMARK    1  A    between atoms: O_1  and  C_5
REMARK    2  A    between atoms: C_3  and  C_4
REMARK    3  A    between atoms: C_3  and  C_5
REMARK                            x       y       z     vdW  Elec       q    Type
REMARK                         _______ _______ _______ _____ _____    ______ ____
ROOT
ATOM      1  C   UNL     1     -13.862 -14.177  10.429  0.00  0.00    +0.000 C 
ATOM      2  H   UNL     1     -12.935 -13.835  10.901  0.00  0.00    +0.000 HD
ATOM      3  H   UNL     1     -14.387 -14.852  11.113  0.00  0.00    +0.000 HD
ENDROOT
BRANCH   1   4
ATOM      4  C   UNL     1     -14.746 -12.979  10.129  0.00  0.00    +0.000 C 
ATOM      5  H   UNL     1     -14.649 -12.227  10.918  0.00  0.00    +0.000 HD
ATOM      6  H   UNL     1     -14.469 -12.514   9.177  0.00  0.00    +0.000 HD
ATOM      7  H   UNL     1     -15.799 -13.273  10.063  0.00  0.00    +0.000 HD
ENDBRANCH   1   4
BRANCH   1   9
ATOM      8  O   UNL     1     -14.260 -15.202   8.254  0.00  0.00    +0.000 OA
ATOM      9  C   UNL     1     -13.506 -14.943   9.180  0.00  0.00    +0.000 C 
BRANCH   9  10
ATOM     10  O   UNL     1     -12.202 -15.319   9.220  0.00  0.00    +0.000 OA
ATOM     11  H   UNL     1     -12.002 -15.859  10.015  0.00  0.00    +0.000 HD
ENDBRANCH   9  10
ENDBRANCH   1   9
TORSDOF 3
ENDMDL
