MODEL 1
REMARK VINA RESULT:    -3.736      0.000      0.000
REMARK INTER + INTRA:          -4.737
REMARK INTER:                  -4.663
REMARK INTRA:                  -0.073
REMARK UNBOUND:                -0.127
REMARK  Name = 7997
REMARK  5 active torsions:
REMARK  status: ('A' for Active; 'I' for Inactive)
REMARK    1  A    between atoms: O_1  and  C_4
REMARK    2  A    between atoms: O_1  and  C_6
REMARK    3  A    between atoms: C_3  and  C_4
REMARK    4  A    between atoms: C_3  and  C_5
REMARK    5  A    between atoms: C_6  and  C_7
REMARK                            x       y       z     vdW  Elec       q    Type
REMARK                         _______ _______ _______ _____ _____    ______ ____
ROOT
ATOM      1  C   UNL     1       1.930  -4.622  14.641  0.00  0.00    +0.000 C 
ATOM      2  H   UNL     1       2.227  -4.678  13.586  0.00  0.00    +0.000 HD
ATOM      3  H   UNL     1       2.548  -5.314  15.224  0.00  0.00    +0.000 HD
ENDROOT
BRANCH   1   4
ATOM      4  C   UNL     1       2.110  -3.203  15.157  0.00  0.00    +0.000 C 
ATOM      5  H   UNL     1       1.317  -2.560  14.754  0.00  0.00    +0.000 HD
ATOM      6  H   UNL     1       1.983  -3.188  16.246  0.00  0.00    +0.000 HD
BRANCH   4   7
ATOM      7  C   UNL     1       3.469  -2.635  14.789  0.00  0.00    +0.000 C 
ATOM      8  H   UNL     1       3.614  -1.645  15.234  0.00  0.00    +0.000 HD
ATOM      9  H   UNL     1       4.266  -3.290  15.152  0.00  0.00    +0.000 HD
ATOM     10  H   UNL     1       3.574  -2.542  13.704  0.00  0.00    +0.000 HD
ENDBRANCH   4   7
ENDBRANCH   1   4
BRANCH   1  11
ATOM     11  O   UNL     1       0.562  -4.986  14.766  0.00  0.00    +0.000 OA
BRANCH  11  13
ATOM     12  O   UNL     1       0.756  -7.285  14.898  0.00  0.00    +0.000 OA
ATOM     13  C   UNL     1       0.321  -6.218  15.311  0.00  0.00    +0.000 C 
BRANCH  13  14
ATOM     14  C   UNL     1      -0.564  -6.079  16.511  0.00  0.00    +0.000 C 
ATOM     15  H   UNL     1      -0.612  -5.031  16.818  0.00  0.00    +0.000 HD
ATOM     16  H   UNL     1      -0.187  -6.702  17.325  0.00  0.00    +0.000 HD
ATOM     17  H   UNL     1      -1.575  -6.414  16.257  0.00  0.00    +0.000 HD
ENDBRANCH  13  14
ENDBRANCH  11  13
ENDBRANCH   1  11
TORSDOF 5
ENDMDL
MODEL 2
REMARK VINA RESULT:    -3.489     34.455     35.494
REMARK INTER + INTRA:          -4.432
REMARK INTER:                  -4.271
REMARK INTRA:                  -0.161
REMARK UNBOUND:                -0.127
REMARK  Name = 7997
REMARK  5 active torsions:
REMARK  status: ('A' for Active; 'I' for Inactive)
REMARK    1  A    between atoms: O_1  and  C_4
REMARK    2  A    between atoms: O_1  and  C_6
REMARK    3  A    between atoms: C_3  and  C_4
REMARK    4  A    between atoms: C_3  and  C_5
REMARK    5  A    between atoms: C_6  and  C_7
REMARK                            x       y       z     vdW  Elec       q    Type
REMARK                         _______ _______ _______ _____ _____    ______ ____
ROOT
ATOM      1  C   UNL     1       3.981   7.957 -16.561  0.00  0.00    +0.000 C 
ATOM      2  H   UNL     1       3.146   7.279 -16.780  0.00  0.00    +0.000 HD
ATOM      3  H   UNL     1       3.586   8.882 -16.125  0.00  0.00    +0.000 HD
ENDROOT
BRANCH   1   4
ATOM      4  C   UNL     1       4.949   7.296 -15.593  0.00  0.00    +0.000 C 
ATOM      5  H   UNL     1       4.781   7.684 -14.581  0.00  0.00    +0.000 HD
ATOM      6  H   UNL     1       4.741   6.221 -15.541  0.00  0.00    +0.000 HD
BRANCH   4   7
ATOM      7  C   UNL     1       6.395   7.522 -15.997  0.00  0.00    +0.000 C 
ATOM      8  H   UNL     1       6.497   7.560 -17.086  0.00  0.00    +0.000 HD
ATOM      9  H   UNL     1       6.760   8.469 -15.588  0.00  0.00    +0.000 HD
ATOM     10  H   UNL     1       7.037   6.719 -15.620  0.00  0.00    +0.000 HD
ENDBRANCH   4   7
ENDBRANCH   1   4
BRANCH   1  11
ATOM     11  O   UNL     1       4.671   8.259 -17.766  0.00  0.00    +0.000 OA
BRANCH  11  13
ATOM     12  O   UNL     1       3.681   9.005 -19.716  0.00  0.00    +0.000 OA
ATOM     13  C   UNL     1       3.948   8.116 -18.919  0.00  0.00    +0.000 C 
BRANCH  13  14
ATOM     14  C   UNL     1       3.520   6.689 -19.078  0.00  0.00    +0.000 C 
ATOM     15  H   UNL     1       2.961   6.571 -20.010  0.00  0.00    +0.000 HD
ATOM     16  H   UNL     1       2.911   6.387 -18.224  0.00  0.00    +0.000 HD
ATOM     17  H   UNL     1       4.405   6.047 -19.119  0.00  0.00    +0.000 HD
ENDBRANCH  13  14
ENDBRANCH  11  13
ENDBRANCH   1  11
TORSDOF 5
ENDMDL
MODEL 3
REMARK VINA RESULT:    -3.413      1.430      3.860
REMARK INTER + INTRA:          -4.338
REMARK INTER:                  -4.273
REMARK INTRA:                  -0.065
REMARK UNBOUND:                -0.127
REMARK  Name = 7997
REMARK  5 active torsions:
REMARK  status: ('A' for Active; 'I' for Inactive)
REMARK    1  A    between atoms: O_1  and  C_4
REMARK    2  A    between atoms: O_1  and  C_6
REMARK    3  A    between atoms: C_3  and  C_4
REMARK    4  A    between atoms: C_3  and  C_5
REMARK    5  A    between atoms: C_6  and  C_7
REMARK                            x       y       z     vdW  Elec       q    Type
REMARK                         _______ _______ _______ _____ _____    ______ ____
ROOT
ATOM      1  C   UNL     1       0.530  -6.265  15.416  0.00  0.00    +0.000 C 
ATOM      2  H   UNL     1       1.478  -6.409  15.950  0.00  0.00    +0.000 HD
ATOM      3  H   UNL     1       0.427  -7.043  14.652  0.00  0.00    +0.000 HD
ENDROOT
BRANCH   1   4
ATOM      4  C   UNL     1      -0.633  -6.337  16.393  0.00  0.00    +0.000 C 
ATOM      5  H   UNL     1      -0.877  -5.329  16.752  0.00  0.00    +0.000 HD
ATOM      6  H   UNL     1      -1.529  -6.696  15.872  0.00  0.00    +0.000 HD
BRANCH   4   7
ATOM      7  C   UNL     1      -0.326  -7.242  17.573  0.00  0.00    +0.000 C 
ATOM      8  H   UNL     1      -1.066  -8.044  17.655  0.00  0.00    +0.000 HD
ATOM      9  H   UNL     1       0.660  -7.701  17.453  0.00  0.00    +0.000 HD
ATOM     10  H   UNL     1      -0.326  -6.677  18.510  0.00  0.00    +0.000 HD
ENDBRANCH   4   7
ENDBRANCH   1   4
BRANCH   1  11
ATOM     11  O   UNL     1       0.528  -4.987  14.795  0.00  0.00    +0.000 OA
BRANCH  11  13
ATOM     12  O   UNL     1       1.378  -2.865  15.134  0.00  0.00    +0.000 OA
ATOM     13  C   UNL     1       1.415  -4.076  15.302  0.00  0.00    +0.000 C 
BRANCH  13  14
ATOM     14  C   UNL     1       2.461  -4.780  16.112  0.00  0.00    +0.000 C 
ATOM     15  H   UNL     1       3.056  -5.430  15.465  0.00  0.00    +0.000 HD
ATOM     16  H   UNL     1       1.987  -5.358  16.908  0.00  0.00    +0.000 HD
ATOM     17  H   UNL     1       3.126  -4.040  16.568  0.00  0.00    +0.000 HD
ENDBRANCH  13  14
ENDBRANCH  11  13
ENDBRANCH   1  11
TORSDOF 5
ENDMDL
MODEL 4
REMARK VINA RESULT:    -3.203     15.623     16.432
REMARK INTER + INTRA:          -4.079
REMARK INTER:                  -3.952
REMARK INTRA:                  -0.127
REMARK UNBOUND:                -0.127
REMARK  Name = 7997
REMARK  5 active torsions:
REMARK  status: ('A' for Active; 'I' for Inactive)
REMARK    1  A    between atoms: O_1  and  C_4
REMARK    2  A    between atoms: O_1  and  C_6
REMARK    3  A    between atoms: C_3  and  C_4
REMARK    4  A    between atoms: C_3  and  C_5
REMARK    5  A    between atoms: C_6  and  C_7
REMARK                            x       y       z     vdW  Elec       q    Type
REMARK                         _______ _______ _______ _____ _____    ______ ____
ROOT
ATOM      1  C   UNL     1       4.336 -13.118   2.385  0.00  0.00    +0.000 C 
ATOM      2  H   UNL     1       5.165 -12.782   3.021  0.00  0.00    +0.000 HD
ATOM      3  H   UNL     1       4.581 -14.102   1.969  0.00  0.00    +0.000 HD
ENDROOT
BRANCH   1   4
ATOM      4  C   UNL     1       3.055 -13.201   3.199  0.00  0.00    +0.000 C 
ATOM      5  H   UNL     1       2.752 -14.250   3.305  0.00  0.00    +0.000 HD
ATOM      6  H   UNL     1       3.240 -12.837   4.217  0.00  0.00    +0.000 HD
BRANCH   4   7
ATOM      7  C   UNL     1       1.929 -12.403   2.564  0.00  0.00    +0.000 C 
ATOM      8  H   UNL     1       2.094 -11.328   2.686  0.00  0.00    +0.000 HD
ATOM      9  H   UNL     1       1.867 -12.619   1.494  0.00  0.00    +0.000 HD
ATOM     10  H   UNL     1       0.966 -12.656   3.019  0.00  0.00    +0.000 HD
ENDBRANCH   4   7
ENDBRANCH   1   4
BRANCH   1  11
ATOM     11  O   UNL     1       4.148 -12.189   1.326  0.00  0.00    +0.000 OA
BRANCH  11  13
ATOM     12  O   UNL     1       5.983 -12.994   0.175  0.00  0.00    +0.000 OA
ATOM     13  C   UNL     1       4.920 -12.389   0.214  0.00  0.00    +0.000 C 
BRANCH  13  14
ATOM     14  C   UNL     1       4.271 -11.755  -0.978  0.00  0.00    +0.000 C 
ATOM     15  H   UNL     1       4.055 -12.516  -1.732  0.00  0.00    +0.000 HD
ATOM     16  H   UNL     1       4.923 -10.981  -1.388  0.00  0.00    +0.000 HD
ATOM     17  H   UNL     1       3.328 -11.289  -0.673  0.00  0.00    +0.000 HD
ENDBRANCH  13  14
ENDBRANCH  11  13
ENDBRANCH   1  11
TORSDOF 5
ENDMDL
MODEL 5
REMARK VINA RESULT:    -3.163     15.439     16.076
REMARK INTER + INTRA:          -4.029
REMARK INTER:                  -3.847
REMARK INTRA:                  -0.182
REMARK UNBOUND:                -0.127
REMARK  Name = 7997
REMARK  5 active torsions:
REMARK  status: ('A' for Active; 'I' for Inactive)
REMARK    1  A    between atoms: O_1  and  C_4
REMARK    2  A    between atoms: O_1  and  C_6
REMARK    3  A    between atoms: C_3  and  C_4
REMARK    4  A    between atoms: C_3  and  C_5
REMARK    5  A    between atoms: C_6  and  C_7
REMARK                            x       y       z     vdW  Elec       q    Type
REMARK                         _______ _______ _______ _____ _____    ______ ____
ROOT
ATOM      1  C   UNL     1       5.045 -13.339   0.914  0.00  0.00    +0.000 C 
ATOM      2  H   UNL     1       4.105 -13.828   0.629  0.00  0.00    +0.000 HD
ATOM      3  H   UNL     1       5.810 -14.105   1.083  0.00  0.00    +0.000 HD
ENDROOT
BRANCH   1   4
ATOM      4  C   UNL     1       5.493 -12.391  -0.187  0.00  0.00    +0.000 C 
ATOM      5  H   UNL     1       6.045 -11.551   0.252  0.00  0.00    +0.000 HD
ATOM      6  H   UNL     1       6.202 -12.903  -0.849  0.00  0.00    +0.000 HD
BRANCH   4   7
ATOM      7  C   UNL     1       4.320 -11.868  -0.996  0.00  0.00    +0.000 C 
ATOM      8  H   UNL     1       3.393 -12.381  -0.720  0.00  0.00    +0.000 HD
ATOM      9  H   UNL     1       4.182 -10.797  -0.817  0.00  0.00    +0.000 HD
ATOM     10  H   UNL     1       4.487 -12.015  -2.068  0.00  0.00    +0.000 HD
ENDBRANCH   4   7
ENDBRANCH   1   4
BRANCH   1  11
ATOM     11  O   UNL     1       4.846 -12.595   2.108  0.00  0.00    +0.000 OA
BRANCH  11  13
ATOM     12  O   UNL     1       3.385 -13.742   3.482  0.00  0.00    +0.000 OA
ATOM     13  C   UNL     1       3.654 -12.801   2.747  0.00  0.00    +0.000 C 
BRANCH  13  14
ATOM     14  C   UNL     1       2.702 -11.692   2.420  0.00  0.00    +0.000 C 
ATOM     15  H   UNL     1       2.480 -11.115   3.322  0.00  0.00    +0.000 HD
ATOM     16  H   UNL     1       1.786 -12.103   1.990  0.00  0.00    +0.000 HD
ATOM     17  H   UNL     1       3.162 -11.024   1.685  0.00  0.00    +0.000 HD
ENDBRANCH  13  14
ENDBRANCH  11  13
ENDBRANCH   1  11
TORSDOF 5
ENDMDL
MODEL 6
REMARK VINA RESULT:    -3.060     23.656     24.722
REMARK INTER + INTRA:          -3.903
REMARK INTER:                  -3.805
REMARK INTRA:                  -0.098
REMARK UNBOUND:                -0.127
REMARK  Name = 7997
REMARK  5 active torsions:
REMARK  status: ('A' for Active; 'I' for Inactive)
REMARK    1  A    between atoms: O_1  and  C_4
REMARK    2  A    between atoms: O_1  and  C_6
REMARK    3  A    between atoms: C_3  and  C_4
REMARK    4  A    between atoms: C_3  and  C_5
REMARK    5  A    between atoms: C_6  and  C_7
REMARK                            x       y       z     vdW  Elec       q    Type
REMARK                         _______ _______ _______ _____ _____    ______ ____
ROOT
ATOM      1  C   UNL     1       7.863  12.717  -1.414  0.00  0.00    +0.000 C 
ATOM      2  H   UNL     1       8.518  13.406  -0.868  0.00  0.00    +0.000 HD
ATOM      3  H   UNL     1       7.236  13.291  -2.105  0.00  0.00    +0.000 HD
ENDROOT
BRANCH   1   4
ATOM      4  C   UNL     1       8.697  11.706  -2.186  0.00  0.00    +0.000 C 
ATOM      5  H   UNL     1       9.673  11.585  -1.700  0.00  0.00    +0.000 HD
ATOM      6  H   UNL     1       8.216  10.722  -2.143  0.00  0.00    +0.000 HD
BRANCH   4   7
ATOM      7  C   UNL     1       8.892  12.122  -3.633  0.00  0.00    +0.000 C 
ATOM      8  H   UNL     1       9.938  12.377  -3.830  0.00  0.00    +0.000 HD
ATOM      9  H   UNL     1       8.609  11.306  -4.305  0.00  0.00    +0.000 HD
ATOM     10  H   UNL     1       8.275  12.992  -3.877  0.00  0.00    +0.000 HD
ENDBRANCH   4   7
ENDBRANCH   1   4
BRANCH   1  11
ATOM     11  O   UNL     1       7.036  12.020  -0.491  0.00  0.00    +0.000 OA
BRANCH  11  13
ATOM     12  O   UNL     1       4.800  11.942   0.084  0.00  0.00    +0.000 OA
ATOM     13  C   UNL     1       5.793  12.554  -0.285  0.00  0.00    +0.000 C 
BRANCH  13  14
ATOM     14  C   UNL     1       5.815  14.024  -0.574  0.00  0.00    +0.000 C 
ATOM     15  H   UNL     1       4.935  14.502  -0.136  0.00  0.00    +0.000 HD
ATOM     16  H   UNL     1       5.847  14.189  -1.653  0.00  0.00    +0.000 HD
ATOM     17  H   UNL     1       6.711  14.468  -0.128  0.00  0.00    +0.000 HD
ENDBRANCH  13  14
ENDBRANCH  11  13
ENDBRANCH   1  11
TORSDOF 5
ENDMDL
MODEL 7
REMARK VINA RESULT:    -3.012     15.132     15.770
REMARK INTER + INTRA:          -3.844
REMARK INTER:                  -3.756
REMARK INTRA:                  -0.088
REMARK UNBOUND:                -0.127
REMARK  Name = 7997
REMARK  5 active torsions:
REMARK  status: ('A' for Active; 'I' for Inactive)
REMARK    1  A    between atoms: O_1  and  C_4
REMARK    2  A    between atoms: O_1  and  C_6
REMARK    3  A    between atoms: C_3  and  C_4
REMARK    4  A    between atoms: C_3  and  C_5
REMARK    5  A    between atoms: C_6  and  C_7
REMARK                            x       y       z     vdW  Elec       q    Type
REMARK                         _______ _______ _______ _____ _____    ______ ____
ROOT
ATOM      1  C   UNL     1      -8.756   7.092  19.870  0.00  0.00    +0.000 C 
ATOM      2  H   UNL     1      -9.341   7.092  20.798  0.00  0.00    +0.000 HD
ATOM      3  H   UNL     1      -9.127   6.297  19.213  0.00  0.00    +0.000 HD
ENDROOT
BRANCH   1   4
ATOM      4  C   UNL     1      -8.879   8.440  19.177  0.00  0.00    +0.000 C 
ATOM      5  H   UNL     1      -9.619   9.058  19.701  0.00  0.00    +0.000 HD
ATOM      6  H   UNL     1      -7.928   8.980  19.251  0.00  0.00    +0.000 HD
BRANCH   4   7
ATOM      7  C   UNL     1      -9.275   8.292  17.718  0.00  0.00    +0.000 C 
ATOM      8  H   UNL     1      -9.296   9.265  17.217  0.00  0.00    +0.000 HD
ATOM      9  H   UNL     1      -8.558   7.654  17.193  0.00  0.00    +0.000 HD
ATOM     10  H   UNL     1     -10.266   7.836  17.626  0.00  0.00    +0.000 HD
ENDBRANCH   4   7
ENDBRANCH   1   4
BRANCH   1  11
ATOM     11  O   UNL     1      -7.388   6.855  20.173  0.00  0.00    +0.000 OA
BRANCH  11  13
ATOM     12  O   UNL     1      -6.023   5.070  20.711  0.00  0.00    +0.000 OA
ATOM     13  C   UNL     1      -7.105   5.641  20.737  0.00  0.00    +0.000 C 
BRANCH  13  14
ATOM     14  C   UNL     1      -8.327   5.093  21.409  0.00  0.00    +0.000 C 
ATOM     15  H   UNL     1      -8.489   5.608  22.360  0.00  0.00    +0.000 HD
ATOM     16  H   UNL     1      -8.214   4.019  21.567  0.00  0.00    +0.000 HD
ATOM     17  H   UNL     1      -9.199   5.261  20.769  0.00  0.00    +0.000 HD
ENDBRANCH  13  14
ENDBRANCH  11  13
ENDBRANCH   1  11
TORSDOF 5
ENDMDL
MODEL 8
REMARK VINA RESULT:    -2.992     17.643     17.803
REMARK INTER + INTRA:          -3.818
REMARK INTER:                  -3.756
REMARK INTRA:                  -0.063
REMARK UNBOUND:                -0.127
REMARK  Name = 7997
REMARK  5 active torsions:
REMARK  status: ('A' for Active; 'I' for Inactive)
REMARK    1  A    between atoms: O_1  and  C_4
REMARK    2  A    between atoms: O_1  and  C_6
REMARK    3  A    between atoms: C_3  and  C_4
REMARK    4  A    between atoms: C_3  and  C_5
REMARK    5  A    between atoms: C_6  and  C_7
REMARK                            x       y       z     vdW  Elec       q    Type
REMARK                         _______ _______ _______ _____ _____    ______ ____
ROOT
ATOM      1  C   UNL     1       7.821 -11.482   0.047  0.00  0.00    +0.000 C 
ATOM      2  H   UNL     1       8.106 -12.541   0.078  0.00  0.00    +0.000 HD
ATOM      3  H   UNL     1       7.678 -11.120   1.071  0.00  0.00    +0.000 HD
ENDROOT
BRANCH   1   4
ATOM      4  C   UNL     1       8.906 -10.671  -0.644  0.00  0.00    +0.000 C 
ATOM      5  H   UNL     1       9.875 -10.868  -0.167  0.00  0.00    +0.000 HD
ATOM      6  H   UNL     1       9.010 -11.005  -1.684  0.00  0.00    +0.000 HD
BRANCH   4   7
ATOM      7  C   UNL     1       8.609  -9.182  -0.608  0.00  0.00    +0.000 C 
ATOM      8  H   UNL     1       7.650  -8.986  -0.120  0.00  0.00    +0.000 HD
ATOM      9  H   UNL     1       9.389  -8.653  -0.053  0.00  0.00    +0.000 HD
ATOM     10  H   UNL     1       8.571  -8.766  -1.620  0.00  0.00    +0.000 HD
ENDBRANCH   4   7
ENDBRANCH   1   4
BRANCH   1  11
ATOM     11  O   UNL     1       6.609 -11.340  -0.680  0.00  0.00    +0.000 OA
BRANCH  11  13
ATOM     12  O   UNL     1       5.761 -13.251   0.303  0.00  0.00    +0.000 OA
ATOM     13  C   UNL     1       5.630 -12.251  -0.389  0.00  0.00    +0.000 C 
BRANCH  13  14
ATOM     14  C   UNL     1       4.345 -11.845  -1.045  0.00  0.00    +0.000 C 
ATOM     15  H   UNL     1       3.664 -11.425  -0.300  0.00  0.00    +0.000 HD
ATOM     16  H   UNL     1       3.891 -12.707  -1.538  0.00  0.00    +0.000 HD
ATOM     17  H   UNL     1       4.549 -11.079  -1.800  0.00  0.00    +0.000 HD
ENDBRANCH  13  14
ENDBRANCH  11  13
ENDBRANCH   1  11
TORSDOF 5
ENDMDL
MODEL 9
REMARK VINA RESULT:    -2.984     15.687     16.508
REMARK INTER + INTRA:          -3.809
REMARK INTER:                  -3.717
REMARK INTRA:                  -0.092
REMARK UNBOUND:                -0.127
REMARK  Name = 7997
REMARK  5 active torsions:
REMARK  status: ('A' for Active; 'I' for Inactive)
REMARK    1  A    between atoms: O_1  and  C_4
REMARK    2  A    between atoms: O_1  and  C_6
REMARK    3  A    between atoms: C_3  and  C_4
REMARK    4  A    between atoms: C_3  and  C_5
REMARK    5  A    between atoms: C_6  and  C_7
REMARK                            x       y       z     vdW  Elec       q    Type
REMARK                         _______ _______ _______ _____ _____    ______ ____
ROOT
ATOM      1  C   UNL     1      -8.504   6.514  20.771  0.00  0.00    +0.000 C 
ATOM      2  H   UNL     1      -9.129   5.684  21.122  0.00  0.00    +0.000 HD
ATOM      3  H   UNL     1      -8.635   7.371  21.441  0.00  0.00    +0.000 HD
ENDROOT
BRANCH   1   4
ATOM      4  C   UNL     1      -7.043   6.092  20.747  0.00  0.00    +0.000 C 
ATOM      5  H   UNL     1      -6.555   6.502  19.853  0.00  0.00    +0.000 HD
ATOM      6  H   UNL     1      -6.518   6.532  21.603  0.00  0.00    +0.000 HD
BRANCH   4   7
ATOM      7  C   UNL     1      -6.890   4.582  20.769  0.00  0.00    +0.000 C 
ATOM      8  H   UNL     1      -6.250   4.241  19.949  0.00  0.00    +0.000 HD
ATOM      9  H   UNL     1      -6.437   4.259  21.711  0.00  0.00    +0.000 HD
ATOM     10  H   UNL     1      -7.863   4.089  20.673  0.00  0.00    +0.000 HD
ENDBRANCH   4   7
ENDBRANCH   1   4
BRANCH   1  11
ATOM     11  O   UNL     1      -8.898   6.878  19.455  0.00  0.00    +0.000 OA
BRANCH  11  13
ATOM     12  O   UNL     1      -8.993   9.105  20.061  0.00  0.00    +0.000 OA
ATOM     13  C   UNL     1      -9.013   8.221  19.216  0.00  0.00    +0.000 C 
BRANCH  13  14
ATOM     14  C   UNL     1      -9.167   8.466  17.746  0.00  0.00    +0.000 C 
ATOM     15  H   UNL     1      -8.435   9.207  17.415  0.00  0.00    +0.000 HD
ATOM     16  H   UNL     1     -10.183   8.805  17.531  0.00  0.00    +0.000 HD
ATOM     17  H   UNL     1      -8.989   7.533  17.202  0.00  0.00    +0.000 HD
ENDBRANCH  13  14
ENDBRANCH  11  13
ENDBRANCH   1  11
TORSDOF 5
ENDMDL
MODEL 10
REMARK VINA RESULT:    -2.908      2.224      2.742
REMARK INTER + INTRA:          -3.716
REMARK INTER:                  -3.589
REMARK INTRA:                  -0.127
REMARK UNBOUND:                -0.127
REMARK  Name = 7997
REMARK  5 active torsions:
REMARK  status: ('A' for Active; 'I' for Inactive)
REMARK    1  A    between atoms: O_1  and  C_4
REMARK    2  A    between atoms: O_1  and  C_6
REMARK    3  A    between atoms: C_3  and  C_4
REMARK    4  A    between atoms: C_3  and  C_5
REMARK    5  A    between atoms: C_6  and  C_7
REMARK                            x       y       z     vdW  Elec       q    Type
REMARK                         _______ _______ _______ _____ _____    ______ ____
ROOT
ATOM      1  C   UNL     1       1.227  -5.210  14.473  0.00  0.00    +0.000 C 
ATOM      2  H   UNL     1       0.190  -5.435  14.196  0.00  0.00    +0.000 HD
ATOM      3  H   UNL     1       1.773  -4.882  13.581  0.00  0.00    +0.000 HD
ENDROOT
BRANCH   1   4
ATOM      4  C   UNL     1       1.259  -4.120  15.533  0.00  0.00    +0.000 C 
ATOM      5  H   UNL     1       0.238  -3.775  15.738  0.00  0.00    +0.000 HD
ATOM      6  H   UNL     1       1.632  -4.535  16.477  0.00  0.00    +0.000 HD
BRANCH   4   7
ATOM      7  C   UNL     1       2.123  -2.945  15.110  0.00  0.00    +0.000 C 
ATOM      8  H   UNL     1       2.844  -2.687  15.892  0.00  0.00    +0.000 HD
ATOM      9  H   UNL     1       2.680  -3.191  14.201  0.00  0.00    +0.000 HD
ATOM     10  H   UNL     1       1.509  -2.063  14.904  0.00  0.00    +0.000 HD
ENDBRANCH   4   7
ENDBRANCH   1   4
BRANCH   1  11
ATOM     11  O   UNL     1       1.839  -6.380  14.999  0.00  0.00    +0.000 OA
BRANCH  11  13
ATOM     12  O   UNL     1       4.126  -6.352  14.668  0.00  0.00    +0.000 OA
ATOM     13  C   UNL     1       3.007  -6.764  14.396  0.00  0.00    +0.000 C 
BRANCH  13  14
ATOM     14  C   UNL     1       2.721  -7.783  13.336  0.00  0.00    +0.000 C 
ATOM     15  H   UNL     1       3.370  -7.613  12.473  0.00  0.00    +0.000 HD
ATOM     16  H   UNL     1       1.670  -7.731  13.044  0.00  0.00    +0.000 HD
ATOM     17  H   UNL     1       2.923  -8.784  13.731  0.00  0.00    +0.000 HD
ENDBRANCH  13  14
ENDBRANCH  11  13
ENDBRANCH   1  11
TORSDOF 5
ENDMDL
