MODEL 1
REMARK VINA RESULT:    -3.866      0.000      0.000
REMARK INTER + INTRA:          -3.866
REMARK INTER:                  -3.866
REMARK INTRA:                   0.000
REMARK UNBOUND:                 0.000
REMARK  Name = 1049
REMARK  0 active torsions:
REMARK  status: ('A' for Active; 'I' for Inactive)
REMARK                            x       y       z     vdW  Elec       q    Type
REMARK                         _______ _______ _______ _____ _____    ______ ____
ROOT
ATOM      1  N   UNL     1       5.577  -4.218  -0.064  0.00  0.00    +0.000 NA
ATOM      2  C   UNL     1       3.839  -2.467  -1.381  0.00  0.00    +0.000 A 
ATOM      3  C   UNL     1       3.562  -2.881  -0.082  0.00  0.00    +0.000 A 
ATOM      4  C   UNL     1       4.983  -2.928  -2.021  0.00  0.00    +0.000 A 
ATOM      5  C   UNL     1       4.454  -3.749   0.527  0.00  0.00    +0.000 A 
ATOM      6  C   UNL     1       5.813  -3.794  -1.326  0.00  0.00    +0.000 A 
ATOM      7  H   UNL     1       3.164  -1.788  -1.892  0.00  0.00    +0.000 HD
ATOM      8  H   UNL     1       2.675  -2.535   0.437  0.00  0.00    +0.000 HD
ATOM      9  H   UNL     1       5.220  -2.619  -3.033  0.00  0.00    +0.000 HD
ATOM     10  H   UNL     1       4.284  -4.101   1.538  0.00  0.00    +0.000 HD
ATOM     11  H   UNL     1       6.718  -4.181  -1.782  0.00  0.00    +0.000 HD
ENDROOT
TORSDOF 0
ENDMDL
MODEL 2
REMARK VINA RESULT:    -3.761      7.038      8.031
REMARK INTER + INTRA:          -3.761
REMARK INTER:                  -3.761
REMARK INTRA:                   0.000
REMARK UNBOUND:                 0.000
REMARK  Name = 1049
REMARK  0 active torsions:
REMARK  status: ('A' for Active; 'I' for Inactive)
REMARK                            x       y       z     vdW  Elec       q    Type
REMARK                         _______ _______ _______ _____ _____    ______ ____
ROOT
ATOM      1  N   UNL     1       8.592  -8.531  -0.465  0.00  0.00    +0.000 NA
ATOM      2  C   UNL     1      10.485 -10.288  -1.538  0.00  0.00    +0.000 A 
ATOM      3  C   UNL     1       9.259 -10.770  -1.092  0.00  0.00    +0.000 A 
ATOM      4  C   UNL     1      10.765  -8.929  -1.448  0.00  0.00    +0.000 A 
ATOM      5  C   UNL     1       8.355  -9.859  -0.569  0.00  0.00    +0.000 A 
ATOM      6  C   UNL     1       9.794  -8.100  -0.909  0.00  0.00    +0.000 A 
ATOM      7  H   UNL     1      11.220 -10.970  -1.954  0.00  0.00    +0.000 HD
ATOM      8  H   UNL     1       9.018 -11.825  -1.153  0.00  0.00    +0.000 HD
ATOM      9  H   UNL     1      11.714  -8.530  -1.789  0.00  0.00    +0.000 HD
ATOM     10  H   UNL     1       7.385 -10.183  -0.208  0.00  0.00    +0.000 HD
ATOM     11  H   UNL     1       9.965  -7.033  -0.817  0.00  0.00    +0.000 HD
ENDROOT
TORSDOF 0
ENDMDL
MODEL 3
REMARK VINA RESULT:    -3.603     15.954     16.867
REMARK INTER + INTRA:          -3.603
REMARK INTER:                  -3.603
REMARK INTRA:                   0.000
REMARK UNBOUND:                 0.000
REMARK  Name = 1049
REMARK  0 active torsions:
REMARK  status: ('A' for Active; 'I' for Inactive)
REMARK                            x       y       z     vdW  Elec       q    Type
REMARK                         _______ _______ _______ _____ _____    ______ ____
ROOT
ATOM      1  N   UNL     1       1.768  -6.347  14.435  0.00  0.00    +0.000 NA
ATOM      2  C   UNL     1      -0.112  -5.466  16.308  0.00  0.00    +0.000 A 
ATOM      3  C   UNL     1       0.800  -4.571  15.760  0.00  0.00    +0.000 A 
ATOM      4  C   UNL     1      -0.085  -6.801  15.920  0.00  0.00    +0.000 A 
ATOM      5  C   UNL     1       1.711  -5.057  14.836  0.00  0.00    +0.000 A 
ATOM      6  C   UNL     1       0.865  -7.188  14.989  0.00  0.00    +0.000 A 
ATOM      7  H   UNL     1      -0.842  -5.124  17.035  0.00  0.00    +0.000 HD
ATOM      8  H   UNL     1       0.798  -3.526  16.047  0.00  0.00    +0.000 HD
ATOM      9  H   UNL     1      -0.787  -7.517  16.334  0.00  0.00    +0.000 HD
ATOM     10  H   UNL     1       2.443  -4.400  14.379  0.00  0.00    +0.000 HD
ATOM     11  H   UNL     1       0.927  -8.218  14.655  0.00  0.00    +0.000 HD
ENDROOT
TORSDOF 0
ENDMDL
MODEL 4
REMARK VINA RESULT:    -3.582     15.884     16.792
REMARK INTER + INTRA:          -3.582
REMARK INTER:                  -3.582
REMARK INTRA:                   0.000
REMARK UNBOUND:                 0.000
REMARK  Name = 1049
REMARK  0 active torsions:
REMARK  status: ('A' for Active; 'I' for Inactive)
REMARK                            x       y       z     vdW  Elec       q    Type
REMARK                         _______ _______ _______ _____ _____    ______ ____
ROOT
ATOM      1  N   UNL     1       1.765  -6.394  14.416  0.00  0.00    +0.000 NA
ATOM      2  C   UNL     1      -0.006  -5.302  16.283  0.00  0.00    +0.000 A 
ATOM      3  C   UNL     1      -0.088  -6.649  15.948  0.00  0.00    +0.000 A 
ATOM      4  C   UNL     1       0.960  -4.501  15.686  0.00  0.00    +0.000 A 
ATOM      5  C   UNL     1       0.813  -7.142  15.017  0.00  0.00    +0.000 A 
ATOM      6  C   UNL     1       1.815  -5.089  14.767  0.00  0.00    +0.000 A 
ATOM      7  H   UNL     1      -0.694  -4.877  17.009  0.00  0.00    +0.000 HD
ATOM      8  H   UNL     1      -0.834  -7.293  16.401  0.00  0.00    +0.000 HD
ATOM      9  H   UNL     1       1.043  -3.448  15.932  0.00  0.00    +0.000 HD
ATOM     10  H   UNL     1       0.791  -8.185  14.722  0.00  0.00    +0.000 HD
ATOM     11  H   UNL     1       2.585  -4.507  14.274  0.00  0.00    +0.000 HD
ENDROOT
TORSDOF 0
ENDMDL
MODEL 5
REMARK VINA RESULT:    -3.477      9.460     10.222
REMARK INTER + INTRA:          -3.477
REMARK INTER:                  -3.477
REMARK INTRA:                   0.000
REMARK UNBOUND:                 0.000
REMARK  Name = 1049
REMARK  0 active torsions:
REMARK  status: ('A' for Active; 'I' for Inactive)
REMARK                            x       y       z     vdW  Elec       q    Type
REMARK                         _______ _______ _______ _____ _____    ______ ____
ROOT
ATOM      1  N   UNL     1       4.665 -13.535   1.763  0.00  0.00    +0.000 NA
ATOM      2  C   UNL     1       2.339 -12.371   2.786  0.00  0.00    +0.000 A 
ATOM      3  C   UNL     1       2.723 -13.641   3.200  0.00  0.00    +0.000 A 
ATOM      4  C   UNL     1       3.116 -11.682   1.862  0.00  0.00    +0.000 A 
ATOM      5  C   UNL     1       3.884 -14.174   2.663  0.00  0.00    +0.000 A 
ATOM      6  C   UNL     1       4.259 -12.302   1.385  0.00  0.00    +0.000 A 
ATOM      7  H   UNL     1       1.435 -11.918   3.184  0.00  0.00    +0.000 HD
ATOM      8  H   UNL     1       2.133 -14.197   3.919  0.00  0.00    +0.000 HD
ATOM      9  H   UNL     1       2.835 -10.690   1.525  0.00  0.00    +0.000 HD
ATOM     10  H   UNL     1       4.228 -15.161   2.953  0.00  0.00    +0.000 HD
ATOM     11  H   UNL     1       4.899 -11.806   0.662  0.00  0.00    +0.000 HD
ENDROOT
TORSDOF 0
ENDMDL
MODEL 6
REMARK VINA RESULT:    -3.309     15.732     16.171
REMARK INTER + INTRA:          -3.309
REMARK INTER:                  -3.309
REMARK INTRA:                   0.000
REMARK UNBOUND:                 0.000
REMARK  Name = 1049
REMARK  0 active torsions:
REMARK  status: ('A' for Active; 'I' for Inactive)
REMARK                            x       y       z     vdW  Elec       q    Type
REMARK                         _______ _______ _______ _____ _____    ______ ____
ROOT
ATOM      1  N   UNL     1       5.243  11.699   0.247  0.00  0.00    +0.000 NA
ATOM      2  C   UNL     1       6.874  13.509   1.619  0.00  0.00    +0.000 A 
ATOM      3  C   UNL     1       6.159  12.543   2.320  0.00  0.00    +0.000 A 
ATOM      4  C   UNL     1       6.774  13.571   0.234  0.00  0.00    +0.000 A 
ATOM      5  C   UNL     1       5.365  11.670   1.593  0.00  0.00    +0.000 A 
ATOM      6  C   UNL     1       5.952  12.651  -0.400  0.00  0.00    +0.000 A 
ATOM      7  H   UNL     1       7.507  14.212   2.151  0.00  0.00    +0.000 HD
ATOM      8  H   UNL     1       6.222  12.477   3.399  0.00  0.00    +0.000 HD
ATOM      9  H   UNL     1       7.321  14.315  -0.334  0.00  0.00    +0.000 HD
ATOM     10  H   UNL     1       4.788  10.899   2.092  0.00  0.00    +0.000 HD
ATOM     11  H   UNL     1       5.840  12.658  -1.479  0.00  0.00    +0.000 HD
ENDROOT
TORSDOF 0
ENDMDL
MODEL 7
REMARK VINA RESULT:    -3.262     16.803     17.270
REMARK INTER + INTRA:          -3.262
REMARK INTER:                  -3.262
REMARK INTRA:                   0.000
REMARK UNBOUND:                 0.000
REMARK  Name = 1049
REMARK  0 active torsions:
REMARK  status: ('A' for Active; 'I' for Inactive)
REMARK                            x       y       z     vdW  Elec       q    Type
REMARK                         _______ _______ _______ _____ _____    ______ ____
ROOT
ATOM      1  N   UNL     1       2.427  -5.867  17.000  0.00  0.00    +0.000 NA
ATOM      2  C   UNL     1       1.265  -3.870  15.425  0.00  0.00    +0.000 A 
ATOM      3  C   UNL     1       0.515  -4.973  15.819  0.00  0.00    +0.000 A 
ATOM      4  C   UNL     1       2.594  -3.765  15.817  0.00  0.00    +0.000 A 
ATOM      5  C   UNL     1       1.137  -5.935  16.599  0.00  0.00    +0.000 A 
ATOM      6  C   UNL     1       3.124  -4.781  16.598  0.00  0.00    +0.000 A 
ATOM      7  H   UNL     1       0.814  -3.095  14.813  0.00  0.00    +0.000 HD
ATOM      8  H   UNL     1      -0.523  -5.077  15.525  0.00  0.00    +0.000 HD
ATOM      9  H   UNL     1       3.198  -2.914  15.522  0.00  0.00    +0.000 HD
ATOM     10  H   UNL     1       0.597  -6.814  16.933  0.00  0.00    +0.000 HD
ATOM     11  H   UNL     1       4.156  -4.745  16.929  0.00  0.00    +0.000 HD
ENDROOT
TORSDOF 0
ENDMDL
MODEL 8
REMARK VINA RESULT:    -3.199     15.985     16.492
REMARK INTER + INTRA:          -3.199
REMARK INTER:                  -3.199
REMARK INTRA:                   0.000
REMARK UNBOUND:                 0.000
REMARK  Name = 1049
REMARK  0 active torsions:
REMARK  status: ('A' for Active; 'I' for Inactive)
REMARK                            x       y       z     vdW  Elec       q    Type
REMARK                         _______ _______ _______ _____ _____    ______ ____
ROOT
ATOM      1  N   UNL     1       7.121  13.917   1.425  0.00  0.00    +0.000 NA
ATOM      2  C   UNL     1       5.626  11.561   1.603  0.00  0.00    +0.000 A 
ATOM      3  C   UNL     1       6.142  11.969   0.378  0.00  0.00    +0.000 A 
ATOM      4  C   UNL     1       5.856  12.329   2.738  0.00  0.00    +0.000 A 
ATOM      5  C   UNL     1       6.877  13.144   0.343  0.00  0.00    +0.000 A 
ATOM      6  C   UNL     1       6.603  13.488   2.599  0.00  0.00    +0.000 A 
ATOM      7  H   UNL     1       5.045  10.646   1.672  0.00  0.00    +0.000 HD
ATOM      8  H   UNL     1       5.975  11.387  -0.521  0.00  0.00    +0.000 HD
ATOM      9  H   UNL     1       5.463  12.030   3.704  0.00  0.00    +0.000 HD
ATOM     10  H   UNL     1       7.301  13.507  -0.587  0.00  0.00    +0.000 HD
ATOM     11  H   UNL     1       6.811  14.121   3.454  0.00  0.00    +0.000 HD
ENDROOT
TORSDOF 0
ENDMDL
MODEL 9
REMARK VINA RESULT:    -3.122      2.966      4.016
REMARK INTER + INTRA:          -3.122
REMARK INTER:                  -3.122
REMARK INTRA:                   0.000
REMARK UNBOUND:                 0.000
REMARK  Name = 1049
REMARK  0 active torsions:
REMARK  status: ('A' for Active; 'I' for Inactive)
REMARK                            x       y       z     vdW  Elec       q    Type
REMARK                         _______ _______ _______ _____ _____    ______ ____
ROOT
ATOM      1  N   UNL     1       7.369  -4.032   0.110  0.00  0.00    +0.000 NA
ATOM      2  C   UNL     1       8.722  -1.746  -0.760  0.00  0.00    +0.000 A 
ATOM      3  C   UNL     1       9.130  -3.004  -1.190  0.00  0.00    +0.000 A 
ATOM      4  C   UNL     1       7.639  -1.630   0.103  0.00  0.00    +0.000 A 
ATOM      5  C   UNL     1       8.426  -4.106  -0.730  0.00  0.00    +0.000 A 
ATOM      6  C   UNL     1       7.001  -2.793   0.506  0.00  0.00    +0.000 A 
ATOM      7  H   UNL     1       9.247  -0.857  -1.098  0.00  0.00    +0.000 HD
ATOM      8  H   UNL     1       9.971  -3.118  -1.863  0.00  0.00    +0.000 HD
ATOM      9  H   UNL     1       7.303  -0.659   0.452  0.00  0.00    +0.000 HD
ATOM     10  H   UNL     1       8.704  -5.109  -1.035  0.00  0.00    +0.000 HD
ATOM     11  H   UNL     1       6.152  -2.755   1.179  0.00  0.00    +0.000 HD
ENDROOT
TORSDOF 0
ENDMDL
MODEL 10
REMARK VINA RESULT:    -3.090      2.082      3.134
REMARK INTER + INTRA:          -3.090
REMARK INTER:                  -3.090
REMARK INTRA:                   0.000
REMARK UNBOUND:                 0.000
REMARK  Name = 1049
REMARK  0 active torsions:
REMARK  status: ('A' for Active; 'I' for Inactive)
REMARK                            x       y       z     vdW  Elec       q    Type
REMARK                         _______ _______ _______ _____ _____    ______ ____
ROOT
ATOM      1  N   UNL     1       7.869  -2.320  -1.460  0.00  0.00    +0.000 NA
ATOM      2  C   UNL     1       5.301  -2.982  -2.345  0.00  0.00    +0.000 A 
ATOM      3  C   UNL     1       6.376  -3.025  -3.227  0.00  0.00    +0.000 A 
ATOM      4  C   UNL     1       5.509  -2.609  -1.022  0.00  0.00    +0.000 A 
ATOM      5  C   UNL     1       7.628  -2.688  -2.739  0.00  0.00    +0.000 A 
ATOM      6  C   UNL     1       6.800  -2.290  -0.632  0.00  0.00    +0.000 A 
ATOM      7  H   UNL     1       4.303  -3.239  -2.689  0.00  0.00    +0.000 HD
ATOM      8  H   UNL     1       6.238  -3.313  -4.262  0.00  0.00    +0.000 HD
ATOM      9  H   UNL     1       4.686  -2.569  -0.317  0.00  0.00    +0.000 HD
ATOM     10  H   UNL     1       8.499  -2.705  -3.385  0.00  0.00    +0.000 HD
ATOM     11  H   UNL     1       7.014  -1.993   0.388  0.00  0.00    +0.000 HD
ENDROOT
TORSDOF 0
ENDMDL
