MODEL 1
REMARK VINA RESULT:    -5.472      0.000      0.000
REMARK INTER + INTRA:          -5.472
REMARK INTER:                  -5.472
REMARK INTRA:                   0.000
REMARK UNBOUND:                 0.000
REMARK  Name = 7047
REMARK  0 active torsions:
REMARK  status: ('A' for Active; 'I' for Inactive)
REMARK                            x       y       z     vdW  Elec       q    Type
REMARK                         _______ _______ _______ _____ _____    ______ ____
ROOT
ATOM      1  N   UNL     1       3.223  -5.521  15.162  0.00  0.00    +0.000 NA
ATOM      2  C   UNL     1       0.945  -5.067  15.803  0.00  0.00    +0.000 A 
ATOM      3  C   UNL     1       2.032  -5.949  15.620  0.00  0.00    +0.000 A 
ATOM      4  C   UNL     1      -0.284  -5.548  16.283  0.00  0.00    +0.000 A 
ATOM      5  C   UNL     1       1.133  -3.714  15.494  0.00  0.00    +0.000 A 
ATOM      6  C   UNL     1       1.844  -7.293  15.927  0.00  0.00    +0.000 A 
ATOM      7  C   UNL     1      -0.445  -6.899  16.584  0.00  0.00    +0.000 A 
ATOM      8  C   UNL     1       0.621  -7.771  16.405  0.00  0.00    +0.000 A 
ATOM      9  C   UNL     1       2.360  -3.271  15.021  0.00  0.00    +0.000 A 
ATOM     10  C   UNL     1       3.364  -4.206  14.874  0.00  0.00    +0.000 A 
ATOM     11  H   UNL     1      -1.126  -4.873  16.427  0.00  0.00    +0.000 HD
ATOM     12  H   UNL     1       0.325  -2.997  15.619  0.00  0.00    +0.000 HD
ATOM     13  H   UNL     1       2.663  -7.998  15.797  0.00  0.00    +0.000 HD
ATOM     14  H   UNL     1      -1.397  -7.266  16.954  0.00  0.00    +0.000 HD
ATOM     15  H   UNL     1       0.505  -8.826  16.637  0.00  0.00    +0.000 HD
ATOM     16  H   UNL     1       2.523  -2.228  14.777  0.00  0.00    +0.000 HD
ATOM     17  H   UNL     1       4.344  -3.919  14.509  0.00  0.00    +0.000 HD
ENDROOT
TORSDOF 0
ENDMDL
MODEL 2
REMARK VINA RESULT:    -5.357     17.434     18.654
REMARK INTER + INTRA:          -5.357
REMARK INTER:                  -5.357
REMARK INTRA:                   0.000
REMARK UNBOUND:                 0.000
REMARK  Name = 7047
REMARK  0 active torsions:
REMARK  status: ('A' for Active; 'I' for Inactive)
REMARK                            x       y       z     vdW  Elec       q    Type
REMARK                         _______ _______ _______ _____ _____    ______ ____
ROOT
ATOM      1  N   UNL     1       8.664  -2.558  -2.887  0.00  0.00    +0.000 NA
ATOM      2  C   UNL     1       7.226  -2.344  -0.966  0.00  0.00    +0.000 A 
ATOM      3  C   UNL     1       7.444  -2.651  -2.326  0.00  0.00    +0.000 A 
ATOM      4  C   UNL     1       5.939  -2.452  -0.413  0.00  0.00    +0.000 A 
ATOM      5  C   UNL     1       8.323  -1.933  -0.197  0.00  0.00    +0.000 A 
ATOM      6  C   UNL     1       6.355  -3.059  -3.089  0.00  0.00    +0.000 A 
ATOM      7  C   UNL     1       4.866  -2.864  -1.199  0.00  0.00    +0.000 A 
ATOM      8  C   UNL     1       5.074  -3.167  -2.538  0.00  0.00    +0.000 A 
ATOM      9  C   UNL     1       9.581  -1.836  -0.773  0.00  0.00    +0.000 A 
ATOM     10  C   UNL     1       9.698  -2.157  -2.111  0.00  0.00    +0.000 A 
ATOM     11  H   UNL     1       5.765  -2.217   0.635  0.00  0.00    +0.000 HD
ATOM     12  H   UNL     1       8.203  -1.686   0.855  0.00  0.00    +0.000 HD
ATOM     13  H   UNL     1       6.491  -3.303  -4.141  0.00  0.00    +0.000 HD
ATOM     14  H   UNL     1       3.873  -2.946  -0.768  0.00  0.00    +0.000 HD
ATOM     15  H   UNL     1       4.243  -3.489  -3.159  0.00  0.00    +0.000 HD
ATOM     16  H   UNL     1      10.440  -1.520  -0.194  0.00  0.00    +0.000 HD
ATOM     17  H   UNL     1      10.656  -2.100  -2.615  0.00  0.00    +0.000 HD
ENDROOT
TORSDOF 0
ENDMDL
MODEL 3
REMARK VINA RESULT:    -5.301     23.835     24.602
REMARK INTER + INTRA:          -5.301
REMARK INTER:                  -5.301
REMARK INTRA:                   0.000
REMARK UNBOUND:                 0.000
REMARK  Name = 7047
REMARK  0 active torsions:
REMARK  status: ('A' for Active; 'I' for Inactive)
REMARK                            x       y       z     vdW  Elec       q    Type
REMARK                         _______ _______ _______ _____ _____    ______ ____
ROOT
ATOM      1  N   UNL     1      15.180  10.343   4.859  0.00  0.00    +0.000 NA
ATOM      2  C   UNL     1      15.167  10.338   2.450  0.00  0.00    +0.000 A 
ATOM      3  C   UNL     1      15.637   9.857   3.690  0.00  0.00    +0.000 A 
ATOM      4  C   UNL     1      15.667   9.808   1.248  0.00  0.00    +0.000 A 
ATOM      5  C   UNL     1      14.197  11.349   2.459  0.00  0.00    +0.000 A 
ATOM      6  C   UNL     1      16.600   8.853   3.681  0.00  0.00    +0.000 A 
ATOM      7  C   UNL     1      16.630   8.804   1.267  0.00  0.00    +0.000 A 
ATOM      8  C   UNL     1      17.097   8.326   2.485  0.00  0.00    +0.000 A 
ATOM      9  C   UNL     1      13.724  11.852   3.662  0.00  0.00    +0.000 A 
ATOM     10  C   UNL     1      14.243  11.319   4.825  0.00  0.00    +0.000 A 
ATOM     11  H   UNL     1      15.307  10.176   0.289  0.00  0.00    +0.000 HD
ATOM     12  H   UNL     1      13.805  11.752   1.528  0.00  0.00    +0.000 HD
ATOM     13  H   UNL     1      16.983   8.461   4.621  0.00  0.00    +0.000 HD
ATOM     14  H   UNL     1      17.014   8.397   0.337  0.00  0.00    +0.000 HD
ATOM     15  H   UNL     1      17.849   7.542   2.510  0.00  0.00    +0.000 HD
ATOM     16  H   UNL     1      12.974  12.634   3.688  0.00  0.00    +0.000 HD
ATOM     17  H   UNL     1      13.911  11.672   5.796  0.00  0.00    +0.000 HD
ENDROOT
TORSDOF 0
ENDMDL
MODEL 4
REMARK VINA RESULT:    -5.290     23.962     24.718
REMARK INTER + INTRA:          -5.290
REMARK INTER:                  -5.290
REMARK INTRA:                   0.000
REMARK UNBOUND:                 0.000
REMARK  Name = 7047
REMARK  0 active torsions:
REMARK  status: ('A' for Active; 'I' for Inactive)
REMARK                            x       y       z     vdW  Elec       q    Type
REMARK                         _______ _______ _______ _____ _____    ______ ____
ROOT
ATOM      1  N   UNL     1      15.667   9.756   1.077  0.00  0.00    +0.000 NA
ATOM      2  C   UNL     1      15.750   9.755   3.485  0.00  0.00    +0.000 A 
ATOM      3  C   UNL     1      15.247  10.243   2.259  0.00  0.00    +0.000 A 
ATOM      4  C   UNL     1      15.289  10.287   4.701  0.00  0.00    +0.000 A 
ATOM      5  C   UNL     1      16.711   8.737   3.446  0.00  0.00    +0.000 A 
ATOM      6  C   UNL     1      14.293  11.254   2.298  0.00  0.00    +0.000 A 
ATOM      7  C   UNL     1      14.333  11.299   4.712  0.00  0.00    +0.000 A 
ATOM      8  C   UNL     1      13.834  11.783   3.509  0.00  0.00    +0.000 A 
ATOM      9  C   UNL     1      17.145   8.234   2.228  0.00  0.00    +0.000 A 
ATOM     10  C   UNL     1      16.597   8.773   1.082  0.00  0.00    +0.000 A 
ATOM     11  H   UNL     1      15.673   9.915   5.649  0.00  0.00    +0.000 HD
ATOM     12  H   UNL     1      17.127   8.330   4.364  0.00  0.00    +0.000 HD
ATOM     13  H   UNL     1      13.886  11.651   1.370  0.00  0.00    +0.000 HD
ATOM     14  H   UNL     1      13.980  11.706   5.654  0.00  0.00    +0.000 HD
ATOM     15  H   UNL     1      13.089  12.572   3.507  0.00  0.00    +0.000 HD
ATOM     16  H   UNL     1      17.888   7.446   2.180  0.00  0.00    +0.000 HD
ATOM     17  H   UNL     1      16.897   8.419   0.101  0.00  0.00    +0.000 HD
ENDROOT
TORSDOF 0
ENDMDL
MODEL 5
REMARK VINA RESULT:    -5.228     18.271     19.426
REMARK INTER + INTRA:          -5.228
REMARK INTER:                  -5.228
REMARK INTRA:                   0.000
REMARK UNBOUND:                 0.000
REMARK  Name = 7047
REMARK  0 active torsions:
REMARK  status: ('A' for Active; 'I' for Inactive)
REMARK                            x       y       z     vdW  Elec       q    Type
REMARK                         _______ _______ _______ _____ _____    ______ ____
ROOT
ATOM      1  N   UNL     1       8.974 -12.769  -1.790  0.00  0.00    +0.000 NA
ATOM      2  C   UNL     1       8.271 -10.745  -0.687  0.00  0.00    +0.000 A 
ATOM      3  C   UNL     1       9.195 -11.483  -1.457  0.00  0.00    +0.000 A 
ATOM      4  C   UNL     1       8.533  -9.405  -0.359  0.00  0.00    +0.000 A 
ATOM      5  C   UNL     1       7.098 -11.388  -0.269  0.00  0.00    +0.000 A 
ATOM      6  C   UNL     1      10.359 -10.845  -1.873  0.00  0.00    +0.000 A 
ATOM      7  C   UNL     1       9.706  -8.789  -0.788  0.00  0.00    +0.000 A 
ATOM      8  C   UNL     1      10.620  -9.510  -1.546  0.00  0.00    +0.000 A 
ATOM      9  C   UNL     1       6.869 -12.713  -0.610  0.00  0.00    +0.000 A 
ATOM     10  C   UNL     1       7.830 -13.353  -1.366  0.00  0.00    +0.000 A 
ATOM     11  H   UNL     1       7.824  -8.831   0.235  0.00  0.00    +0.000 HD
ATOM     12  H   UNL     1       6.357 -10.860   0.326  0.00  0.00    +0.000 HD
ATOM     13  H   UNL     1      11.091 -11.387  -2.468  0.00  0.00    +0.000 HD
ATOM     14  H   UNL     1       9.905  -7.754  -0.531  0.00  0.00    +0.000 HD
ATOM     15  H   UNL     1      11.537  -9.039  -1.885  0.00  0.00    +0.000 HD
ATOM     16  H   UNL     1       5.968 -13.225  -0.295  0.00  0.00    +0.000 HD
ATOM     17  H   UNL     1       7.705 -14.389  -1.663  0.00  0.00    +0.000 HD
ENDROOT
TORSDOF 0
ENDMDL
MODEL 6
REMARK VINA RESULT:    -4.905     22.344     24.034
REMARK INTER + INTRA:          -4.905
REMARK INTER:                  -4.905
REMARK INTRA:                   0.000
REMARK UNBOUND:                 0.000
REMARK  Name = 7047
REMARK  0 active torsions:
REMARK  status: ('A' for Active; 'I' for Inactive)
REMARK                            x       y       z     vdW  Elec       q    Type
REMARK                         _______ _______ _______ _____ _____    ______ ____
ROOT
ATOM      1  N   UNL     1       7.677  14.306   0.772  0.00  0.00    +0.000 NA
ATOM      2  C   UNL     1       6.213  12.479   1.341  0.00  0.00    +0.000 A 
ATOM      3  C   UNL     1       6.939  13.641   1.680  0.00  0.00    +0.000 A 
ATOM      4  C   UNL     1       5.452  11.809   2.314  0.00  0.00    +0.000 A 
ATOM      5  C   UNL     1       6.276  12.024   0.018  0.00  0.00    +0.000 A 
ATOM      6  C   UNL     1       6.876  14.093   2.994  0.00  0.00    +0.000 A 
ATOM      7  C   UNL     1       5.406  12.283   3.623  0.00  0.00    +0.000 A 
ATOM      8  C   UNL     1       6.119  13.426   3.963  0.00  0.00    +0.000 A 
ATOM      9  C   UNL     1       7.036  12.708  -0.920  0.00  0.00    +0.000 A 
ATOM     10  C   UNL     1       7.712  13.833  -0.496  0.00  0.00    +0.000 A 
ATOM     11  H   UNL     1       4.890  10.913   2.058  0.00  0.00    +0.000 HD
ATOM     12  H   UNL     1       5.733  11.133  -0.291  0.00  0.00    +0.000 HD
ATOM     13  H   UNL     1       7.424  14.985   3.287  0.00  0.00    +0.000 HD
ATOM     14  H   UNL     1       4.818  11.763   4.371  0.00  0.00    +0.000 HD
ATOM     15  H   UNL     1       6.089  13.803   4.980  0.00  0.00    +0.000 HD
ATOM     16  H   UNL     1       7.097  12.369  -1.948  0.00  0.00    +0.000 HD
ATOM     17  H   UNL     1       8.322  14.409  -1.184  0.00  0.00    +0.000 HD
ENDROOT
TORSDOF 0
ENDMDL
MODEL 7
REMARK VINA RESULT:    -4.828     22.204     24.104
REMARK INTER + INTRA:          -4.828
REMARK INTER:                  -4.828
REMARK INTRA:                   0.000
REMARK UNBOUND:                 0.000
REMARK  Name = 7047
REMARK  0 active torsions:
REMARK  status: ('A' for Active; 'I' for Inactive)
REMARK                            x       y       z     vdW  Elec       q    Type
REMARK                         _______ _______ _______ _____ _____    ______ ____
ROOT
ATOM      1  N   UNL     1       6.909  14.189   3.051  0.00  0.00    +0.000 NA
ATOM      2  C   UNL     1       6.200  12.482   1.504  0.00  0.00    +0.000 A 
ATOM      3  C   UNL     1       6.921  13.655   1.815  0.00  0.00    +0.000 A 
ATOM      4  C   UNL     1       6.235  11.953   0.204  0.00  0.00    +0.000 A 
ATOM      5  C   UNL     1       5.459  11.873   2.525  0.00  0.00    +0.000 A 
ATOM      6  C   UNL     1       7.657  14.260   0.801  0.00  0.00    +0.000 A 
ATOM      7  C   UNL     1       6.980  12.578  -0.793  0.00  0.00    +0.000 A 
ATOM      8  C   UNL     1       7.692  13.733  -0.494  0.00  0.00    +0.000 A 
ATOM      9  C   UNL     1       5.445  12.422   3.800  0.00  0.00    +0.000 A 
ATOM     10  C   UNL     1       6.181  13.570   4.009  0.00  0.00    +0.000 A 
ATOM     11  H   UNL     1       5.681  11.049  -0.041  0.00  0.00    +0.000 HD
ATOM     12  H   UNL     1       4.888  10.968   2.333  0.00  0.00    +0.000 HD
ATOM     13  H   UNL     1       8.224  15.166   1.009  0.00  0.00    +0.000 HD
ATOM     14  H   UNL     1       7.005  12.165  -1.797  0.00  0.00    +0.000 HD
ATOM     15  H   UNL     1       8.276  14.227  -1.264  0.00  0.00    +0.000 HD
ATOM     16  H   UNL     1       4.877  11.964   4.601  0.00  0.00    +0.000 HD
ATOM     17  H   UNL     1       6.208  14.044   4.984  0.00  0.00    +0.000 HD
ENDROOT
TORSDOF 0
ENDMDL
MODEL 8
REMARK VINA RESULT:    -4.676     22.192     24.048
REMARK INTER + INTRA:          -4.676
REMARK INTER:                  -4.676
REMARK INTRA:                   0.000
REMARK UNBOUND:                 0.000
REMARK  Name = 7047
REMARK  0 active torsions:
REMARK  status: ('A' for Active; 'I' for Inactive)
REMARK                            x       y       z     vdW  Elec       q    Type
REMARK                         _______ _______ _______ _____ _____    ______ ____
ROOT
ATOM      1  N   UNL     1       6.211  11.985  -0.216  0.00  0.00    +0.000 NA
ATOM      2  C   UNL     1       6.917  13.501   1.519  0.00  0.00    +0.000 A 
ATOM      3  C   UNL     1       6.174  12.390   1.068  0.00  0.00    +0.000 A 
ATOM      4  C   UNL     1       6.855  13.896   2.866  0.00  0.00    +0.000 A 
ATOM      5  C   UNL     1       7.709  14.187   0.589  0.00  0.00    +0.000 A 
ATOM      6  C   UNL     1       5.388  11.708   1.992  0.00  0.00    +0.000 A 
ATOM      7  C   UNL     1       6.060  13.196   3.770  0.00  0.00    +0.000 A 
ATOM      8  C   UNL     1       5.326  12.101   3.332  0.00  0.00    +0.000 A 
ATOM      9  C   UNL     1       7.749  13.772  -0.734  0.00  0.00    +0.000 A 
ATOM     10  C   UNL     1       6.988  12.675  -1.083  0.00  0.00    +0.000 A 
ATOM     11  H   UNL     1       7.426  14.752   3.219  0.00  0.00    +0.000 HD
ATOM     12  H   UNL     1       8.299  15.050   0.890  0.00  0.00    +0.000 HD
ATOM     13  H   UNL     1       4.803  10.847   1.675  0.00  0.00    +0.000 HD
ATOM     14  H   UNL     1       6.015  13.504   4.810  0.00  0.00    +0.000 HD
ATOM     15  H   UNL     1       4.703  11.549   4.030  0.00  0.00    +0.000 HD
ATOM     16  H   UNL     1       8.356  14.292  -1.467  0.00  0.00    +0.000 HD
ATOM     17  H   UNL     1       6.979  12.305  -2.102  0.00  0.00    +0.000 HD
ENDROOT
TORSDOF 0
ENDMDL
MODEL 9
REMARK VINA RESULT:    -4.615     26.123     28.153
REMARK INTER + INTRA:          -4.615
REMARK INTER:                  -4.615
REMARK INTRA:                   0.000
REMARK UNBOUND:                 0.000
REMARK  Name = 7047
REMARK  0 active torsions:
REMARK  status: ('A' for Active; 'I' for Inactive)
REMARK                            x       y       z     vdW  Elec       q    Type
REMARK                         _______ _______ _______ _____ _____    ______ ____
ROOT
ATOM      1  N   UNL     1       6.811  13.528  -3.258  0.00  0.00    +0.000 NA
ATOM      2  C   UNL     1       8.746  12.413  -4.163  0.00  0.00    +0.000 A 
ATOM      3  C   UNL     1       7.589  13.209  -4.309  0.00  0.00    +0.000 A 
ATOM      4  C   UNL     1       9.535  12.099  -5.283  0.00  0.00    +0.000 A 
ATOM      5  C   UNL     1       9.075  11.954  -2.882  0.00  0.00    +0.000 A 
ATOM      6  C   UNL     1       7.263  13.665  -5.582  0.00  0.00    +0.000 A 
ATOM      7  C   UNL     1       9.186  12.568  -6.546  0.00  0.00    +0.000 A 
ATOM      8  C   UNL     1       8.048  13.352  -6.696  0.00  0.00    +0.000 A 
ATOM      9  C   UNL     1       8.275  12.282  -1.796  0.00  0.00    +0.000 A 
ATOM     10  C   UNL     1       7.164  13.065  -2.036  0.00  0.00    +0.000 A 
ATOM     11  H   UNL     1      10.428  11.486  -5.176  0.00  0.00    +0.000 HD
ATOM     12  H   UNL     1       9.956  11.338  -2.721  0.00  0.00    +0.000 HD
ATOM     13  H   UNL     1       6.377  14.280  -5.727  0.00  0.00    +0.000 HD
ATOM     14  H   UNL     1       9.798  12.323  -7.408  0.00  0.00    +0.000 HD
ATOM     15  H   UNL     1       7.768  13.723  -7.677  0.00  0.00    +0.000 HD
ATOM     16  H   UNL     1       8.514  11.935  -0.798  0.00  0.00    +0.000 HD
ATOM     17  H   UNL     1       6.501  13.353  -1.227  0.00  0.00    +0.000 HD
ENDROOT
TORSDOF 0
ENDMDL
MODEL 10
REMARK VINA RESULT:    -4.596     25.416     25.669
REMARK INTER + INTRA:          -4.596
REMARK INTER:                  -4.596
REMARK INTRA:                   0.000
REMARK UNBOUND:                 0.000
REMARK  Name = 7047
REMARK  0 active torsions:
REMARK  status: ('A' for Active; 'I' for Inactive)
REMARK                            x       y       z     vdW  Elec       q    Type
REMARK                         _______ _______ _______ _____ _____    ______ ____
ROOT
ATOM      1  N   UNL     1      -6.104  -8.505  -7.473  0.00  0.00    +0.000 NA
ATOM      2  C   UNL     1      -5.164  -7.020  -9.121  0.00  0.00    +0.000 A 
ATOM      3  C   UNL     1      -5.217  -8.263  -8.456  0.00  0.00    +0.000 A 
ATOM      4  C   UNL     1      -4.225  -6.802 -10.143  0.00  0.00    +0.000 A 
ATOM      5  C   UNL     1      -6.070  -6.024  -8.732  0.00  0.00    +0.000 A 
ATOM      6  C   UNL     1      -4.317  -9.252  -8.842  0.00  0.00    +0.000 A 
ATOM      7  C   UNL     1      -3.336  -7.809 -10.510  0.00  0.00    +0.000 A 
ATOM      8  C   UNL     1      -3.382  -9.035  -9.859  0.00  0.00    +0.000 A 
ATOM      9  C   UNL     1      -6.985  -6.271  -7.720  0.00  0.00    +0.000 A 
ATOM     10  C   UNL     1      -6.962  -7.517  -7.127  0.00  0.00    +0.000 A 
ATOM     11  H   UNL     1      -4.180  -5.845 -10.659  0.00  0.00    +0.000 HD
ATOM     12  H   UNL     1      -6.067  -5.050  -9.216  0.00  0.00    +0.000 HD
ATOM     13  H   UNL     1      -4.333 -10.221  -8.348  0.00  0.00    +0.000 HD
ATOM     14  H   UNL     1      -2.611  -7.636 -11.300  0.00  0.00    +0.000 HD
ATOM     15  H   UNL     1      -2.693  -9.826 -10.138  0.00  0.00    +0.000 HD
ATOM     16  H   UNL     1      -7.693  -5.512  -7.406  0.00  0.00    +0.000 HD
ATOM     17  H   UNL     1      -7.654  -7.767  -6.330  0.00  0.00    +0.000 HD
ENDROOT
TORSDOF 0
ENDMDL
