MODEL 1
REMARK VINA RESULT:    -2.608      0.000      0.000
REMARK INTER + INTRA:          -2.608
REMARK INTER:                  -2.608
REMARK INTRA:                   0.000
REMARK UNBOUND:                 0.000
REMARK  Name = 9256
REMARK  0 active torsions:
REMARK  status: ('A' for Active; 'I' for Inactive)
REMARK                            x       y       z     vdW  Elec       q    Type
REMARK                         _______ _______ _______ _____ _____    ______ ____
ROOT
ATOM      1  S   UNL     1     -19.296  -2.268   9.750  0.00  0.00    +0.000 S 
ATOM      2  N   UNL     1     -16.985  -1.629   8.785  0.00  0.00    +0.000 NA
ATOM      3  C   UNL     1     -19.253  -1.471   8.232  0.00  0.00    +0.000 A 
ATOM      4  C   UNL     1     -17.945  -1.212   7.882  0.00  0.00    +0.000 A 
ATOM      5  C   UNL     1     -17.583  -2.199   9.807  0.00  0.00    +0.000 A 
ATOM      6  H   UNL     1     -20.156  -1.236   7.687  0.00  0.00    +0.000 HD
ATOM      7  H   UNL     1     -17.633  -0.718   6.972  0.00  0.00    +0.000 HD
ATOM      8  H   UNL     1     -17.029  -2.605  10.643  0.00  0.00    +0.000 HD
ENDROOT
TORSDOF 0
ENDMDL
MODEL 2
REMARK VINA RESULT:    -2.550     30.084     30.352
REMARK INTER + INTRA:          -2.550
REMARK INTER:                  -2.550
REMARK INTRA:                   0.000
REMARK UNBOUND:                 0.000
REMARK  Name = 9256
REMARK  0 active torsions:
REMARK  status: ('A' for Active; 'I' for Inactive)
REMARK                            x       y       z     vdW  Elec       q    Type
REMARK                         _______ _______ _______ _____ _____    ______ ____
ROOT
ATOM      1  S   UNL     1       9.597 -10.624  -1.032  0.00  0.00    +0.000 S 
ATOM      2  N   UNL     1       8.729  -8.232  -0.572  0.00  0.00    +0.000 NA
ATOM      3  C   UNL     1      10.670  -9.313  -1.306  0.00  0.00    +0.000 A 
ATOM      4  C   UNL     1      10.036  -8.126  -1.008  0.00  0.00    +0.000 A 
ATOM      5  C   UNL     1       8.392  -9.502  -0.545  0.00  0.00    +0.000 A 
ATOM      6  H   UNL     1      11.679  -9.470  -1.660  0.00  0.00    +0.000 HD
ATOM      7  H   UNL     1      10.486  -7.146  -1.092  0.00  0.00    +0.000 HD
ATOM      8  H   UNL     1       7.409  -9.830  -0.234  0.00  0.00    +0.000 HD
ENDROOT
TORSDOF 0
ENDMDL
MODEL 3
REMARK VINA RESULT:    -2.438     24.802     25.125
REMARK INTER + INTRA:          -2.438
REMARK INTER:                  -2.438
REMARK INTRA:                   0.000
REMARK UNBOUND:                 0.000
REMARK  Name = 9256
REMARK  0 active torsions:
REMARK  status: ('A' for Active; 'I' for Inactive)
REMARK                            x       y       z     vdW  Elec       q    Type
REMARK                         _______ _______ _______ _____ _____    ______ ____
ROOT
ATOM      1  S   UNL     1       5.136  -2.979  -2.132  0.00  0.00    +0.000 S 
ATOM      2  N   UNL     1       5.250  -4.117   0.186  0.00  0.00    +0.000 NA
ATOM      3  C   UNL     1       3.913  -2.600  -0.990  0.00  0.00    +0.000 A 
ATOM      4  C   UNL     1       4.138  -3.297   0.178  0.00  0.00    +0.000 A 
ATOM      5  C   UNL     1       5.852  -4.029  -0.979  0.00  0.00    +0.000 A 
ATOM      6  H   UNL     1       3.114  -1.910  -1.220  0.00  0.00    +0.000 HD
ATOM      7  H   UNL     1       3.517  -3.242   1.062  0.00  0.00    +0.000 HD
ATOM      8  H   UNL     1       6.751  -4.587  -1.206  0.00  0.00    +0.000 HD
ENDROOT
TORSDOF 0
ENDMDL
MODEL 4
REMARK VINA RESULT:    -2.406     27.885     28.201
REMARK INTER + INTRA:          -2.406
REMARK INTER:                  -2.406
REMARK INTRA:                   0.000
REMARK UNBOUND:                 0.000
REMARK  Name = 9256
REMARK  0 active torsions:
REMARK  status: ('A' for Active; 'I' for Inactive)
REMARK                            x       y       z     vdW  Elec       q    Type
REMARK                         _______ _______ _______ _____ _____    ______ ____
ROOT
ATOM      1  S   UNL     1       8.297  -2.009   0.560  0.00  0.00    +0.000 S 
ATOM      2  N   UNL     1       7.883  -4.411  -0.301  0.00  0.00    +0.000 NA
ATOM      3  C   UNL     1       9.332  -2.612  -0.668  0.00  0.00    +0.000 A 
ATOM      4  C   UNL     1       8.961  -3.898  -0.996  0.00  0.00    +0.000 A 
ATOM      5  C   UNL     1       7.453  -3.503   0.546  0.00  0.00    +0.000 A 
ATOM      6  H   UNL     1      10.136  -2.017  -1.077  0.00  0.00    +0.000 HD
ATOM      7  H   UNL     1       9.447  -4.512  -1.743  0.00  0.00    +0.000 HD
ATOM      8  H   UNL     1       6.611  -3.682   1.203  0.00  0.00    +0.000 HD
ENDROOT
TORSDOF 0
ENDMDL
MODEL 5
REMARK VINA RESULT:    -2.383     24.859     25.156
REMARK INTER + INTRA:          -2.383
REMARK INTER:                  -2.383
REMARK INTRA:                   0.000
REMARK UNBOUND:                 0.000
REMARK  Name = 9256
REMARK  0 active torsions:
REMARK  status: ('A' for Active; 'I' for Inactive)
REMARK                            x       y       z     vdW  Elec       q    Type
REMARK                         _______ _______ _______ _____ _____    ______ ____
ROOT
ATOM      1  S   UNL     1       4.298 -13.809   2.104  0.00  0.00    +0.000 S 
ATOM      2  N   UNL     1       2.527 -12.179   3.045  0.00  0.00    +0.000 NA
ATOM      3  C   UNL     1       4.091 -12.302   1.310  0.00  0.00    +0.000 A 
ATOM      4  C   UNL     1       3.111 -11.573   1.949  0.00  0.00    +0.000 A 
ATOM      5  C   UNL     1       3.074 -13.360   3.220  0.00  0.00    +0.000 A 
ATOM      6  H   UNL     1       4.676 -12.032   0.442  0.00  0.00    +0.000 HD
ATOM      7  H   UNL     1       2.782 -10.586   1.655  0.00  0.00    +0.000 HD
ATOM      8  H   UNL     1       2.773 -14.020   4.023  0.00  0.00    +0.000 HD
ENDROOT
TORSDOF 0
ENDMDL
MODEL 6
REMARK VINA RESULT:    -2.288     28.811     29.204
REMARK INTER + INTRA:          -2.288
REMARK INTER:                  -2.288
REMARK INTRA:                   0.000
REMARK UNBOUND:                 0.000
REMARK  Name = 9256
REMARK  0 active torsions:
REMARK  status: ('A' for Active; 'I' for Inactive)
REMARK                            x       y       z     vdW  Elec       q    Type
REMARK                         _______ _______ _______ _____ _____    ______ ____
ROOT
ATOM      1  S   UNL     1       6.612  13.533   2.085  0.00  0.00    +0.000 S 
ATOM      2  N   UNL     1       5.510  11.307   1.371  0.00  0.00    +0.000 NA
ATOM      3  C   UNL     1       6.722  13.076   0.435  0.00  0.00    +0.000 A 
ATOM      4  C   UNL     1       6.081  11.870   0.246  0.00  0.00    +0.000 A 
ATOM      5  C   UNL     1       5.727  12.096   2.398  0.00  0.00    +0.000 A 
ATOM      6  H   UNL     1       7.234  13.690  -0.292  0.00  0.00    +0.000 HD
ATOM      7  H   UNL     1       6.000  11.354  -0.702  0.00  0.00    +0.000 HD
ATOM      8  H   UNL     1       5.370  11.859   3.392  0.00  0.00    +0.000 HD
ENDROOT
TORSDOF 0
ENDMDL
MODEL 7
REMARK VINA RESULT:    -2.244      1.954      2.594
REMARK INTER + INTRA:          -2.244
REMARK INTER:                  -2.244
REMARK INTRA:                   0.000
REMARK UNBOUND:                 0.000
REMARK  Name = 9256
REMARK  0 active torsions:
REMARK  status: ('A' for Active; 'I' for Inactive)
REMARK                            x       y       z     vdW  Elec       q    Type
REMARK                         _______ _______ _______ _____ _____    ______ ____
ROOT
ATOM      1  S   UNL     1     -18.079  -1.563   7.655  0.00  0.00    +0.000 S 
ATOM      2  N   UNL     1     -19.960  -1.776   9.415  0.00  0.00    +0.000 NA
ATOM      3  C   UNL     1     -17.685  -2.265   9.170  0.00  0.00    +0.000 A 
ATOM      4  C   UNL     1     -18.806  -2.294   9.972  0.00  0.00    +0.000 A 
ATOM      5  C   UNL     1     -19.694  -1.361   8.197  0.00  0.00    +0.000 A 
ATOM      6  H   UNL     1     -16.686  -2.611   9.394  0.00  0.00    +0.000 HD
ATOM      7  H   UNL     1     -18.837  -2.687  10.979  0.00  0.00    +0.000 HD
ATOM      8  H   UNL     1     -20.450  -0.915   7.564  0.00  0.00    +0.000 HD
ENDROOT
TORSDOF 0
ENDMDL
MODEL 8
REMARK VINA RESULT:    -2.200     27.909     28.235
REMARK INTER + INTRA:          -2.200
REMARK INTER:                  -2.200
REMARK INTRA:                   0.000
REMARK UNBOUND:                 0.000
REMARK  Name = 9256
REMARK  0 active torsions:
REMARK  status: ('A' for Active; 'I' for Inactive)
REMARK                            x       y       z     vdW  Elec       q    Type
REMARK                         _______ _______ _______ _____ _____    ______ ____
ROOT
ATOM      1  S   UNL     1       8.386  -3.969  -0.812  0.00  0.00    +0.000 S 
ATOM      2  N   UNL     1       8.815  -1.438  -0.513  0.00  0.00    +0.000 NA
ATOM      3  C   UNL     1       7.739  -3.203   0.580  0.00  0.00    +0.000 A 
ATOM      4  C   UNL     1       8.067  -1.865   0.567  0.00  0.00    +0.000 A 
ATOM      5  C   UNL     1       9.042  -2.462  -1.304  0.00  0.00    +0.000 A 
ATOM      6  H   UNL     1       7.168  -3.751   1.317  0.00  0.00    +0.000 HD
ATOM      7  H   UNL     1       7.783  -1.150   1.328  0.00  0.00    +0.000 HD
ATOM      8  H   UNL     1       9.612  -2.366  -2.220  0.00  0.00    +0.000 HD
ENDROOT
TORSDOF 0
ENDMDL
MODEL 9
REMARK VINA RESULT:    -2.139     31.662     32.083
REMARK INTER + INTRA:          -2.139
REMARK INTER:                  -2.139
REMARK INTRA:                   0.000
REMARK UNBOUND:                 0.000
REMARK  Name = 9256
REMARK  0 active torsions:
REMARK  status: ('A' for Active; 'I' for Inactive)
REMARK                            x       y       z     vdW  Elec       q    Type
REMARK                         _______ _______ _______ _____ _____    ______ ____
ROOT
ATOM      1  S   UNL     1       6.993  13.559  -2.432  0.00  0.00    +0.000 S 
ATOM      2  N   UNL     1       8.747  11.683  -2.133  0.00  0.00    +0.000 NA
ATOM      3  C   UNL     1       7.873  13.054  -3.816  0.00  0.00    +0.000 A 
ATOM      4  C   UNL     1       8.755  12.054  -3.464  0.00  0.00    +0.000 A 
ATOM      5  C   UNL     1       7.858  12.410  -1.495  0.00  0.00    +0.000 A 
ATOM      6  H   UNL     1       7.709  13.499  -4.787  0.00  0.00    +0.000 HD
ATOM      7  H   UNL     1       9.431  11.557  -4.146  0.00  0.00    +0.000 HD
ATOM      8  H   UNL     1       7.675  12.295  -0.434  0.00  0.00    +0.000 HD
ENDROOT
TORSDOF 0
ENDMDL
MODEL 10
REMARK VINA RESULT:    -2.114     27.003     27.262
REMARK INTER + INTRA:          -2.114
REMARK INTER:                  -2.114
REMARK INTRA:                   0.000
REMARK UNBOUND:                 0.000
REMARK  Name = 9256
REMARK  0 active torsions:
REMARK  status: ('A' for Active; 'I' for Inactive)
REMARK                            x       y       z     vdW  Elec       q    Type
REMARK                         _______ _______ _______ _____ _____    ______ ____
ROOT
ATOM      1  S   UNL     1       6.681 -12.105  -0.120  0.00  0.00    +0.000 S 
ATOM      2  N   UNL     1       5.235 -12.331   2.011  0.00  0.00    +0.000 NA
ATOM      3  C   UNL     1       4.980 -12.223  -0.312  0.00  0.00    +0.000 A 
ATOM      4  C   UNL     1       4.381 -12.336   0.925  0.00  0.00    +0.000 A 
ATOM      5  C   UNL     1       6.471 -12.214   1.579  0.00  0.00    +0.000 A 
ATOM      6  H   UNL     1       4.515 -12.206  -1.288  0.00  0.00    +0.000 HD
ATOM      7  H   UNL     1       3.316 -12.425   1.092  0.00  0.00    +0.000 HD
ATOM      8  H   UNL     1       7.316 -12.187   2.255  0.00  0.00    +0.000 HD
ENDROOT
TORSDOF 0
ENDMDL
