MODEL 1
REMARK VINA RESULT:    -5.598      0.000      0.000
REMARK INTER + INTRA:          -6.759
REMARK INTER:                  -6.550
REMARK INTRA:                  -0.209
REMARK UNBOUND:                -0.179
REMARK  Name = 6989
REMARK  5 active torsions:
REMARK  status: ('A' for Active; 'I' for Inactive)
REMARK    1  A    between atoms: O_1  and  C_6
REMARK    2  A    between atoms: C_2  and  C_3
REMARK    3  A    between atoms: C_2  and  C_4
REMARK    4  A    between atoms: C_2  and  C_5
REMARK    5  A    between atoms: C_8  and  C_11
REMARK                            x       y       z     vdW  Elec       q    Type
REMARK                         _______ _______ _______ _____ _____    ______ ____
ROOT
ATOM      1  C   UNL     1       6.317  -3.273  -0.022  0.00  0.00    +0.000 A 
ATOM      2  C   UNL     1       5.273  -3.511   0.872  0.00  0.00    +0.000 A 
ATOM      3  C   UNL     1       6.043  -2.770  -1.295  0.00  0.00    +0.000 A 
ATOM      4  C   UNL     1       3.683  -2.744  -0.778  0.00  0.00    +0.000 A 
ATOM      5  C   UNL     1       3.956  -3.247   0.495  0.00  0.00    +0.000 A 
ATOM      6  C   UNL     1       4.727  -2.506  -1.672  0.00  0.00    +0.000 A 
ATOM      7  H   UNL     1       6.839  -2.575  -2.008  0.00  0.00    +0.000 HD
ATOM      8  H   UNL     1       3.148  -3.433   1.197  0.00  0.00    +0.000 HD
ATOM      9  H   UNL     1       4.526  -2.112  -2.665  0.00  0.00    +0.000 HD
ENDROOT
BRANCH   4  10
ATOM     10  C   UNL     1       2.276  -2.461  -1.181  0.00  0.00    +0.000 C 
ATOM     11  H   UNL     1       2.211  -1.537  -1.765  0.00  0.00    +0.000 HD
ATOM     12  H   UNL     1       1.886  -3.287  -1.784  0.00  0.00    +0.000 HD
ATOM     13  H   UNL     1       1.631  -2.332  -0.305  0.00  0.00    +0.000 HD
ENDBRANCH   4  10
BRANCH   2  14
ATOM     14  O   UNL     1       5.523  -4.002   2.119  0.00  0.00    +0.000 OA
ATOM     15  H   UNL     1       4.931  -4.756   2.282  0.00  0.00    +0.000 HD
ENDBRANCH   2  14
BRANCH   1  16
ATOM     16  C   UNL     1       7.731  -3.550   0.364  0.00  0.00    +0.000 C 
ATOM     17  H   UNL     1       7.786  -4.066   1.328  0.00  0.00    +0.000 HD
BRANCH  16  18
ATOM     18  C   UNL     1       8.548  -2.260   0.568  0.00  0.00    +0.000 C 
ATOM     19  H   UNL     1       8.186  -1.440  -0.060  0.00  0.00    +0.000 HD
ATOM     20  H   UNL     1       9.601  -2.428   0.318  0.00  0.00    +0.000 HD
ATOM     21  H   UNL     1       8.499  -1.930   1.612  0.00  0.00    +0.000 HD
ENDBRANCH  16  18
BRANCH  16  22
ATOM     22  C   UNL     1       8.447  -4.467  -0.643  0.00  0.00    +0.000 C 
ATOM     23  H   UNL     1       9.163  -3.898  -1.248  0.00  0.00    +0.000 HD
ATOM     24  H   UNL     1       7.724  -4.929  -1.326  0.00  0.00    +0.000 HD
ATOM     25  H   UNL     1       8.995  -5.276  -0.147  0.00  0.00    +0.000 HD
ENDBRANCH  16  22
ENDBRANCH   1  16
TORSDOF 5
ENDMDL
MODEL 2
REMARK VINA RESULT:    -5.150     15.189     16.487
REMARK INTER + INTRA:          -6.232
REMARK INTER:                  -6.148
REMARK INTRA:                  -0.084
REMARK UNBOUND:                -0.179
REMARK  Name = 6989
REMARK  5 active torsions:
REMARK  status: ('A' for Active; 'I' for Inactive)
REMARK    1  A    between atoms: O_1  and  C_6
REMARK    2  A    between atoms: C_2  and  C_3
REMARK    3  A    between atoms: C_2  and  C_4
REMARK    4  A    between atoms: C_2  and  C_5
REMARK    5  A    between atoms: C_8  and  C_11
REMARK                            x       y       z     vdW  Elec       q    Type
REMARK                         _______ _______ _______ _____ _____    ______ ____
ROOT
ATOM      1  C   UNL     1       1.598  -5.022  15.086  0.00  0.00    +0.000 A 
ATOM      2  C   UNL     1       1.852  -6.330  14.676  0.00  0.00    +0.000 A 
ATOM      3  C   UNL     1       0.611  -4.769  16.040  0.00  0.00    +0.000 A 
ATOM      4  C   UNL     1       0.134  -7.134  16.172  0.00  0.00    +0.000 A 
ATOM      5  C   UNL     1       1.120  -7.387  15.219  0.00  0.00    +0.000 A 
ATOM      6  C   UNL     1      -0.120  -5.825  16.582  0.00  0.00    +0.000 A 
ATOM      7  H   UNL     1       0.396  -3.759  16.376  0.00  0.00    +0.000 HD
ATOM      8  H   UNL     1       1.325  -8.404  14.896  0.00  0.00    +0.000 HD
ATOM      9  H   UNL     1      -0.885  -5.616  17.326  0.00  0.00    +0.000 HD
ENDROOT
BRANCH   4  10
ATOM     10  C   UNL     1      -0.649  -8.263  16.753  0.00  0.00    +0.000 C 
ATOM     11  H   UNL     1      -0.679  -8.201  17.846  0.00  0.00    +0.000 HD
ATOM     12  H   UNL     1      -1.674  -8.244  16.370  0.00  0.00    +0.000 HD
ATOM     13  H   UNL     1      -0.198  -9.228  16.500  0.00  0.00    +0.000 HD
ENDBRANCH   4  10
BRANCH   2  14
ATOM     14  O   UNL     1       2.812  -6.595  13.746  0.00  0.00    +0.000 OA
ATOM     15  H   UNL     1       3.270  -5.766  13.523  0.00  0.00    +0.000 HD
ENDBRANCH   2  14
BRANCH   1  16
ATOM     16  C   UNL     1       2.371  -3.880  14.516  0.00  0.00    +0.000 C 
ATOM     17  H   UNL     1       2.500  -3.987  13.435  0.00  0.00    +0.000 HD
BRANCH  16  18
ATOM     18  C   UNL     1       3.805  -3.805  15.072  0.00  0.00    +0.000 C 
ATOM     19  H   UNL     1       4.130  -2.773  15.236  0.00  0.00    +0.000 HD
ATOM     20  H   UNL     1       4.513  -4.269  14.376  0.00  0.00    +0.000 HD
ATOM     21  H   UNL     1       3.879  -4.335  16.029  0.00  0.00    +0.000 HD
ENDBRANCH  16  18
BRANCH  16  22
ATOM     22  C   UNL     1       1.661  -2.529  14.720  0.00  0.00    +0.000 C 
ATOM     23  H   UNL     1       1.048  -2.545  15.628  0.00  0.00    +0.000 HD
ATOM     24  H   UNL     1       1.000  -2.310  13.873  0.00  0.00    +0.000 HD
ATOM     25  H   UNL     1       2.371  -1.700  14.808  0.00  0.00    +0.000 HD
ENDBRANCH  16  22
ENDBRANCH   1  16
TORSDOF 5
ENDMDL
MODEL 3
REMARK VINA RESULT:    -4.941     16.321     17.662
REMARK INTER + INTRA:          -5.987
REMARK INTER:                  -5.780
REMARK INTRA:                  -0.207
REMARK UNBOUND:                -0.179
REMARK  Name = 6989
REMARK  5 active torsions:
REMARK  status: ('A' for Active; 'I' for Inactive)
REMARK    1  A    between atoms: O_1  and  C_6
REMARK    2  A    between atoms: C_2  and  C_3
REMARK    3  A    between atoms: C_2  and  C_4
REMARK    4  A    between atoms: C_2  and  C_5
REMARK    5  A    between atoms: C_8  and  C_11
REMARK                            x       y       z     vdW  Elec       q    Type
REMARK                         _______ _______ _______ _____ _____    ______ ____
ROOT
ATOM      1  C   UNL     1       1.208  -6.638  16.695  0.00  0.00    +0.000 A 
ATOM      2  C   UNL     1       0.440  -6.018  15.709  0.00  0.00    +0.000 A 
ATOM      3  C   UNL     1       2.381  -6.033  17.147  0.00  0.00    +0.000 A 
ATOM      4  C   UNL     1       2.018  -4.190  15.629  0.00  0.00    +0.000 A 
ATOM      5  C   UNL     1       0.844  -4.794  15.176  0.00  0.00    +0.000 A 
ATOM      6  C   UNL     1       2.786  -4.810  16.614  0.00  0.00    +0.000 A 
ATOM      7  H   UNL     1       2.996  -6.495  17.915  0.00  0.00    +0.000 HD
ATOM      8  H   UNL     1       0.240  -4.315  14.409  0.00  0.00    +0.000 HD
ATOM      9  H   UNL     1       3.701  -4.347  16.976  0.00  0.00    +0.000 HD
ENDROOT
BRANCH   4  10
ATOM     10  C   UNL     1       2.451  -2.881  15.058  0.00  0.00    +0.000 C 
ATOM     11  H   UNL     1       2.382  -2.084  15.806  0.00  0.00    +0.000 HD
ATOM     12  H   UNL     1       3.485  -2.949  14.708  0.00  0.00    +0.000 HD
ATOM     13  H   UNL     1       1.814  -2.586  14.217  0.00  0.00    +0.000 HD
ENDBRANCH   4  10
BRANCH   2  14
ATOM     14  O   UNL     1      -0.709  -6.594  15.256  0.00  0.00    +0.000 OA
ATOM     15  H   UNL     1      -0.597  -7.560  15.260  0.00  0.00    +0.000 HD
ENDBRANCH   2  14
BRANCH   1  16
ATOM     16  C   UNL     1       0.790  -7.947  17.277  0.00  0.00    +0.000 C 
ATOM     17  H   UNL     1       0.133  -8.494  16.594  0.00  0.00    +0.000 HD
BRANCH  16  18
ATOM     18  C   UNL     1      -0.039  -7.780  18.564  0.00  0.00    +0.000 C 
ATOM     19  H   UNL     1      -1.031  -7.364  18.363  0.00  0.00    +0.000 HD
ATOM     20  H   UNL     1       0.468  -7.106  19.263  0.00  0.00    +0.000 HD
ATOM     21  H   UNL     1      -0.175  -8.745  19.066  0.00  0.00    +0.000 HD
ENDBRANCH  16  18
BRANCH  16  22
ATOM     22  C   UNL     1       1.985  -8.880  17.542  0.00  0.00    +0.000 C 
ATOM     23  H   UNL     1       2.925  -8.316  17.548  0.00  0.00    +0.000 HD
ATOM     24  H   UNL     1       2.058  -9.645  16.761  0.00  0.00    +0.000 HD
ATOM     25  H   UNL     1       1.899  -9.397  18.504  0.00  0.00    +0.000 HD
ENDBRANCH  16  22
ENDBRANCH   1  16
TORSDOF 5
ENDMDL
MODEL 4
REMARK VINA RESULT:    -4.939      8.074      9.589
REMARK INTER + INTRA:          -5.985
REMARK INTER:                  -5.776
REMARK INTRA:                  -0.209
REMARK UNBOUND:                -0.179
REMARK  Name = 6989
REMARK  5 active torsions:
REMARK  status: ('A' for Active; 'I' for Inactive)
REMARK    1  A    between atoms: O_1  and  C_6
REMARK    2  A    between atoms: C_2  and  C_3
REMARK    3  A    between atoms: C_2  and  C_4
REMARK    4  A    between atoms: C_2  and  C_5
REMARK    5  A    between atoms: C_8  and  C_11
REMARK                            x       y       z     vdW  Elec       q    Type
REMARK                         _______ _______ _______ _____ _____    ______ ____
ROOT
ATOM      1  C   UNL     1       7.630 -11.704  -0.503  0.00  0.00    +0.000 A 
ATOM      2  C   UNL     1       8.482 -12.358  -1.392  0.00  0.00    +0.000 A 
ATOM      3  C   UNL     1       7.909 -10.395  -0.104  0.00  0.00    +0.000 A 
ATOM      4  C   UNL     1       9.892 -10.398  -1.485  0.00  0.00    +0.000 A 
ATOM      5  C   UNL     1       9.613 -11.706  -1.884  0.00  0.00    +0.000 A 
ATOM      6  C   UNL     1       9.040  -9.744  -0.595  0.00  0.00    +0.000 A 
ATOM      7  H   UNL     1       7.260  -9.865   0.586  0.00  0.00    +0.000 HD
ATOM      8  H   UNL     1      10.272 -12.221  -2.578  0.00  0.00    +0.000 HD
ATOM      9  H   UNL     1       9.246  -8.724  -0.279  0.00  0.00    +0.000 HD
ENDROOT
BRANCH   4  10
ATOM     10  C   UNL     1      11.101  -9.701  -2.010  0.00  0.00    +0.000 C 
ATOM     11  H   UNL     1      11.709 -10.374  -2.624  0.00  0.00    +0.000 HD
ATOM     12  H   UNL     1      10.804  -8.841  -2.618  0.00  0.00    +0.000 HD
ATOM     13  H   UNL     1      11.741  -9.349  -1.193  0.00  0.00    +0.000 HD
ENDBRANCH   4  10
BRANCH   2  14
ATOM     14  O   UNL     1       8.224 -13.635  -1.792  0.00  0.00    +0.000 OA
ATOM     15  H   UNL     1       8.014 -14.172  -1.009  0.00  0.00    +0.000 HD
ENDBRANCH   2  14
BRANCH   1  16
ATOM     16  C   UNL     1       6.416 -12.386   0.032  0.00  0.00    +0.000 C 
ATOM     17  H   UNL     1       6.462 -13.467  -0.132  0.00  0.00    +0.000 HD
BRANCH  16  18
ATOM     18  C   UNL     1       5.127 -11.939  -0.683  0.00  0.00    +0.000 C 
ATOM     19  H   UNL     1       4.556 -11.218  -0.089  0.00  0.00    +0.000 HD
ATOM     20  H   UNL     1       4.476 -12.799  -0.876  0.00  0.00    +0.000 HD
ATOM     21  H   UNL     1       5.360 -11.471  -1.646  0.00  0.00    +0.000 HD
ENDBRANCH  16  18
BRANCH  16  22
ATOM     22  C   UNL     1       6.260 -12.201   1.553  0.00  0.00    +0.000 C 
ATOM     23  H   UNL     1       5.570 -12.946   1.967  0.00  0.00    +0.000 HD
ATOM     24  H   UNL     1       5.858 -11.207   1.781  0.00  0.00    +0.000 HD
ATOM     25  H   UNL     1       7.215 -12.300   2.080  0.00  0.00    +0.000 HD
ENDBRANCH  16  22
ENDBRANCH   1  16
TORSDOF 5
ENDMDL
MODEL 5
REMARK VINA RESULT:    -4.710     15.829     16.821
REMARK INTER + INTRA:          -5.715
REMARK INTER:                  -5.507
REMARK INTRA:                  -0.208
REMARK UNBOUND:                -0.179
REMARK  Name = 6989
REMARK  5 active torsions:
REMARK  status: ('A' for Active; 'I' for Inactive)
REMARK    1  A    between atoms: O_1  and  C_6
REMARK    2  A    between atoms: C_2  and  C_3
REMARK    3  A    between atoms: C_2  and  C_4
REMARK    4  A    between atoms: C_2  and  C_5
REMARK    5  A    between atoms: C_8  and  C_11
REMARK                            x       y       z     vdW  Elec       q    Type
REMARK                         _______ _______ _______ _____ _____    ______ ____
ROOT
ATOM      1  C   UNL     1      16.559   8.974   2.712  0.00  0.00    +0.000 A 
ATOM      2  C   UNL     1      15.883   9.654   1.700  0.00  0.00    +0.000 A 
ATOM      3  C   UNL     1      16.270   9.248   4.050  0.00  0.00    +0.000 A 
ATOM      4  C   UNL     1      14.628  10.880   3.361  0.00  0.00    +0.000 A 
ATOM      5  C   UNL     1      14.917  10.607   2.023  0.00  0.00    +0.000 A 
ATOM      6  C   UNL     1      15.305  10.200   4.373  0.00  0.00    +0.000 A 
ATOM      7  H   UNL     1      16.783   8.730   4.855  0.00  0.00    +0.000 HD
ATOM      8  H   UNL     1      14.392  11.132   1.230  0.00  0.00    +0.000 HD
ATOM      9  H   UNL     1      15.087  10.403   5.419  0.00  0.00    +0.000 HD
ENDROOT
BRANCH   4  10
ATOM     10  C   UNL     1      13.596  11.900   3.707  0.00  0.00    +0.000 C 
ATOM     11  H   UNL     1      13.408  11.918   4.786  0.00  0.00    +0.000 HD
ATOM     12  H   UNL     1      13.928  12.893   3.390  0.00  0.00    +0.000 HD
ATOM     13  H   UNL     1      12.641  11.677   3.220  0.00  0.00    +0.000 HD
ENDBRANCH   4  10
BRANCH   2  14
ATOM     14  O   UNL     1      16.152   9.399   0.388  0.00  0.00    +0.000 OA
ATOM     15  H   UNL     1      17.001   9.813   0.157  0.00  0.00    +0.000 HD
ENDBRANCH   2  14
BRANCH   1  16
ATOM     16  C   UNL     1      17.595   7.951   2.384  0.00  0.00    +0.000 C 
ATOM     17  H   UNL     1      17.590   7.708   1.317  0.00  0.00    +0.000 HD
BRANCH  16  18
ATOM     18  C   UNL     1      17.338   6.606   3.089  0.00  0.00    +0.000 C 
ATOM     19  H   UNL     1      16.275   6.344   3.099  0.00  0.00    +0.000 HD
ATOM     20  H   UNL     1      17.679   6.646   4.130  0.00  0.00    +0.000 HD
ATOM     21  H   UNL     1      17.878   5.795   2.589  0.00  0.00    +0.000 HD
ENDBRANCH  16  18
BRANCH  16  22
ATOM     22  C   UNL     1      19.022   8.439   2.694  0.00  0.00    +0.000 C 
ATOM     23  H   UNL     1      19.343   9.191   1.964  0.00  0.00    +0.000 HD
ATOM     24  H   UNL     1      19.732   7.605   2.651  0.00  0.00    +0.000 HD
ATOM     25  H   UNL     1      19.097   8.885   3.691  0.00  0.00    +0.000 HD
ENDBRANCH  16  22
ENDBRANCH   1  16
TORSDOF 5
ENDMDL
MODEL 6
REMARK VINA RESULT:    -4.695     16.614     17.919
REMARK INTER + INTRA:          -5.697
REMARK INTER:                  -5.489
REMARK INTRA:                  -0.208
REMARK UNBOUND:                -0.179
REMARK  Name = 6989
REMARK  5 active torsions:
REMARK  status: ('A' for Active; 'I' for Inactive)
REMARK    1  A    between atoms: O_1  and  C_6
REMARK    2  A    between atoms: C_2  and  C_3
REMARK    3  A    between atoms: C_2  and  C_4
REMARK    4  A    between atoms: C_2  and  C_5
REMARK    5  A    between atoms: C_8  and  C_11
REMARK                            x       y       z     vdW  Elec       q    Type
REMARK                         _______ _______ _______ _____ _____    ______ ____
ROOT
ATOM      1  C   UNL     1       1.543  -5.651  16.306  0.00  0.00    +0.000 A 
ATOM      2  C   UNL     1       2.376  -6.250  17.251  0.00  0.00    +0.000 A 
ATOM      3  C   UNL     1       0.173  -5.918  16.316  0.00  0.00    +0.000 A 
ATOM      4  C   UNL     1       0.471  -7.382  18.214  0.00  0.00    +0.000 A 
ATOM      5  C   UNL     1       1.841  -7.116  18.205  0.00  0.00    +0.000 A 
ATOM      6  C   UNL     1      -0.362  -6.783  17.269  0.00  0.00    +0.000 A 
ATOM      7  H   UNL     1      -0.496  -5.463  15.592  0.00  0.00    +0.000 HD
ATOM      8  H   UNL     1       2.495  -7.578  18.940  0.00  0.00    +0.000 HD
ATOM      9  H   UNL     1      -1.430  -6.982  17.268  0.00  0.00    +0.000 HD
ENDROOT
BRANCH   4  10
ATOM     10  C   UNL     1      -0.101  -8.308  19.234  0.00  0.00    +0.000 C 
ATOM     11  H   UNL     1       0.627  -8.524  20.023  0.00  0.00    +0.000 HD
ATOM     12  H   UNL     1      -0.991  -7.861  19.688  0.00  0.00    +0.000 HD
ATOM     13  H   UNL     1      -0.380  -9.267  18.785  0.00  0.00    +0.000 HD
ENDBRANCH   4  10
BRANCH   2  14
ATOM     14  O   UNL     1       3.716  -6.001  17.256  0.00  0.00    +0.000 OA
ATOM     15  H   UNL     1       4.016  -5.882  16.339  0.00  0.00    +0.000 HD
ENDBRANCH   2  14
BRANCH   1  16
ATOM     16  C   UNL     1       2.099  -4.723  15.279  0.00  0.00    +0.000 C 
ATOM     17  H   UNL     1       3.153  -4.502  15.471  0.00  0.00    +0.000 HD
BRANCH  16  18
ATOM     18  C   UNL     1       1.405  -3.348  15.293  0.00  0.00    +0.000 C 
ATOM     19  H   UNL     1       1.653  -2.770  16.189  0.00  0.00    +0.000 HD
ATOM     20  H   UNL     1       0.316  -3.466  15.266  0.00  0.00    +0.000 HD
ATOM     21  H   UNL     1       1.700  -2.755  14.419  0.00  0.00    +0.000 HD
ENDBRANCH  16  18
BRANCH  16  22
ATOM     22  C   UNL     1       2.049  -5.318  13.860  0.00  0.00    +0.000 C 
ATOM     23  H   UNL     1       1.271  -6.087  13.788  0.00  0.00    +0.000 HD
ATOM     24  H   UNL     1       3.007  -5.786  13.605  0.00  0.00    +0.000 HD
ATOM     25  H   UNL     1       1.840  -4.558  13.101  0.00  0.00    +0.000 HD
ENDBRANCH  16  22
ENDBRANCH   1  16
TORSDOF 5
ENDMDL
MODEL 7
REMARK VINA RESULT:    -4.674     25.280     26.710
REMARK INTER + INTRA:          -5.673
REMARK INTER:                  -5.464
REMARK INTRA:                  -0.209
REMARK UNBOUND:                -0.179
REMARK  Name = 6989
REMARK  5 active torsions:
REMARK  status: ('A' for Active; 'I' for Inactive)
REMARK    1  A    between atoms: O_1  and  C_6
REMARK    2  A    between atoms: C_2  and  C_3
REMARK    3  A    between atoms: C_2  and  C_4
REMARK    4  A    between atoms: C_2  and  C_5
REMARK    5  A    between atoms: C_8  and  C_11
REMARK                            x       y       z     vdW  Elec       q    Type
REMARK                         _______ _______ _______ _____ _____    ______ ____
ROOT
ATOM      1  C   UNL     1      -8.546   9.084  18.457  0.00  0.00    +0.000 A 
ATOM      2  C   UNL     1      -9.144   7.824  18.432  0.00  0.00    +0.000 A 
ATOM      3  C   UNL     1      -7.750   9.456  19.541  0.00  0.00    +0.000 A 
ATOM      4  C   UNL     1      -8.149   7.308  20.573  0.00  0.00    +0.000 A 
ATOM      5  C   UNL     1      -8.946   6.936  19.490  0.00  0.00    +0.000 A 
ATOM      6  C   UNL     1      -7.552   8.568  20.598  0.00  0.00    +0.000 A 
ATOM      7  H   UNL     1      -7.273  10.431  19.583  0.00  0.00    +0.000 HD
ATOM      8  H   UNL     1      -9.413   5.955  19.463  0.00  0.00    +0.000 HD
ATOM      9  H   UNL     1      -6.928   8.869  21.436  0.00  0.00    +0.000 HD
ENDROOT
BRANCH   4  10
ATOM     10  C   UNL     1      -7.937   6.359  21.704  0.00  0.00    +0.000 C 
ATOM     11  H   UNL     1      -6.891   6.361  22.029  0.00  0.00    +0.000 HD
ATOM     12  H   UNL     1      -8.571   6.638  22.551  0.00  0.00    +0.000 HD
ATOM     13  H   UNL     1      -8.178   5.332  21.409  0.00  0.00    +0.000 HD
ENDBRANCH   4  10
BRANCH   2  14
ATOM     14  O   UNL     1      -9.925   7.444  17.382  0.00  0.00    +0.000 OA
ATOM     15  H   UNL     1     -10.784   7.143  17.723  0.00  0.00    +0.000 HD
ENDBRANCH   2  14
BRANCH   1  16
ATOM     16  C   UNL     1      -8.747  10.046  17.335  0.00  0.00    +0.000 C 
ATOM     17  H   UNL     1      -9.589   9.748  16.702  0.00  0.00    +0.000 HD
BRANCH  16  18
ATOM     18  C   UNL     1      -7.541  10.095  16.379  0.00  0.00    +0.000 C 
ATOM     19  H   UNL     1      -6.618  10.378  16.895  0.00  0.00    +0.000 HD
ATOM     20  H   UNL     1      -7.711  10.825  15.581  0.00  0.00    +0.000 HD
ATOM     21  H   UNL     1      -7.377   9.117  15.911  0.00  0.00    +0.000 HD
ENDBRANCH  16  18
BRANCH  16  22
ATOM     22  C   UNL     1      -9.079  11.466  17.830  0.00  0.00    +0.000 C 
ATOM     23  H   UNL     1      -8.589  11.667  18.790  0.00  0.00    +0.000 HD
ATOM     24  H   UNL     1     -10.160  11.580  17.975  0.00  0.00    +0.000 HD
ATOM     25  H   UNL     1      -8.757  12.235  17.120  0.00  0.00    +0.000 HD
ENDBRANCH  16  22
ENDBRANCH   1  16
TORSDOF 5
ENDMDL
MODEL 8
REMARK VINA RESULT:    -4.550      9.269     11.494
REMARK INTER + INTRA:          -5.527
REMARK INTER:                  -5.319
REMARK INTRA:                  -0.208
REMARK UNBOUND:                -0.179
REMARK  Name = 6989
REMARK  5 active torsions:
REMARK  status: ('A' for Active; 'I' for Inactive)
REMARK    1  A    between atoms: O_1  and  C_6
REMARK    2  A    between atoms: C_2  and  C_3
REMARK    3  A    between atoms: C_2  and  C_4
REMARK    4  A    between atoms: C_2  and  C_5
REMARK    5  A    between atoms: C_8  and  C_11
REMARK                            x       y       z     vdW  Elec       q    Type
REMARK                         _______ _______ _______ _____ _____    ______ ____
ROOT
ATOM      1  C   UNL     1      12.776  -9.894  -4.070  0.00  0.00    +0.000 A 
ATOM      2  C   UNL     1      14.117 -10.236  -4.245  0.00  0.00    +0.000 A 
ATOM      3  C   UNL     1      12.133  -9.092  -5.014  0.00  0.00    +0.000 A 
ATOM      4  C   UNL     1      14.172  -8.974  -6.305  0.00  0.00    +0.000 A 
ATOM      5  C   UNL     1      14.816  -9.777  -5.362  0.00  0.00    +0.000 A 
ATOM      6  C   UNL     1      12.831  -8.633  -6.130  0.00  0.00    +0.000 A 
ATOM      7  H   UNL     1      11.089  -8.813  -4.901  0.00  0.00    +0.000 HD
ATOM      8  H   UNL     1      15.860 -10.048  -5.493  0.00  0.00    +0.000 HD
ATOM      9  H   UNL     1      12.318  -8.010  -6.859  0.00  0.00    +0.000 HD
ENDROOT
BRANCH   4  10
ATOM     10  C   UNL     1      14.918  -8.483  -7.499  0.00  0.00    +0.000 C 
ATOM     11  H   UNL     1      15.646  -9.226  -7.842  0.00  0.00    +0.000 HD
ATOM     12  H   UNL     1      14.220  -8.270  -8.315  0.00  0.00    +0.000 HD
ATOM     13  H   UNL     1      15.477  -7.570  -7.268  0.00  0.00    +0.000 HD
ENDBRANCH   4  10
BRANCH   2  14
ATOM     14  O   UNL     1      14.761 -11.018  -3.333  0.00  0.00    +0.000 OA
ATOM     15  H   UNL     1      14.698 -11.946  -3.618  0.00  0.00    +0.000 HD
ENDBRANCH   2  14
BRANCH   1  16
ATOM     16  C   UNL     1      12.014 -10.377  -2.882  0.00  0.00    +0.000 C 
ATOM     17  H   UNL     1      12.671 -10.885  -2.169  0.00  0.00    +0.000 HD
BRANCH  16  18
ATOM     18  C   UNL     1      10.953 -11.429  -3.252  0.00  0.00    +0.000 C 
ATOM     19  H   UNL     1      11.398 -12.407  -3.460  0.00  0.00    +0.000 HD
ATOM     20  H   UNL     1      10.400 -11.120  -4.146  0.00  0.00    +0.000 HD
ATOM     21  H   UNL     1      10.231 -11.556  -2.437  0.00  0.00    +0.000 HD
ENDBRANCH  16  18
BRANCH  16  22
ATOM     22  C   UNL     1      11.358  -9.226  -2.098  0.00  0.00    +0.000 C 
ATOM     23  H   UNL     1      12.068  -8.405  -1.945  0.00  0.00    +0.000 HD
ATOM     24  H   UNL     1      11.027  -9.571  -1.111  0.00  0.00    +0.000 HD
ATOM     25  H   UNL     1      10.483  -8.821  -2.616  0.00  0.00    +0.000 HD
ENDBRANCH  16  22
ENDBRANCH   1  16
TORSDOF 5
ENDMDL
MODEL 9
REMARK VINA RESULT:    -4.534     16.470     17.372
REMARK INTER + INTRA:          -5.509
REMARK INTER:                  -5.301
REMARK INTRA:                  -0.208
REMARK UNBOUND:                -0.179
REMARK  Name = 6989
REMARK  5 active torsions:
REMARK  status: ('A' for Active; 'I' for Inactive)
REMARK    1  A    between atoms: O_1  and  C_6
REMARK    2  A    between atoms: C_2  and  C_3
REMARK    3  A    between atoms: C_2  and  C_4
REMARK    4  A    between atoms: C_2  and  C_5
REMARK    5  A    between atoms: C_8  and  C_11
REMARK                            x       y       z     vdW  Elec       q    Type
REMARK                         _______ _______ _______ _____ _____    ______ ____
ROOT
ATOM      1  C   UNL     1       8.725  12.889  -4.066  0.00  0.00    +0.000 A 
ATOM      2  C   UNL     1       7.774  13.110  -5.062  0.00  0.00    +0.000 A 
ATOM      3  C   UNL     1      10.082  12.856  -4.394  0.00  0.00    +0.000 A 
ATOM      4  C   UNL     1       9.533  13.265  -6.711  0.00  0.00    +0.000 A 
ATOM      5  C   UNL     1       8.177  13.298  -6.384  0.00  0.00    +0.000 A 
ATOM      6  C   UNL     1      10.485  13.044  -5.715  0.00  0.00    +0.000 A 
ATOM      7  H   UNL     1      10.841  12.687  -3.636  0.00  0.00    +0.000 HD
ATOM      8  H   UNL     1       7.430  13.471  -7.155  0.00  0.00    +0.000 HD
ATOM      9  H   UNL     1      11.544  13.019  -5.957  0.00  0.00    +0.000 HD
ENDROOT
BRANCH   4  10
ATOM     10  C   UNL     1       9.965  13.466  -8.124  0.00  0.00    +0.000 C 
ATOM     11  H   UNL     1       9.678  14.460  -8.486  0.00  0.00    +0.000 HD
ATOM     12  H   UNL     1      11.051  13.362  -8.203  0.00  0.00    +0.000 HD
ATOM     13  H   UNL     1       9.493  12.736  -8.790  0.00  0.00    +0.000 HD
ENDBRANCH   4  10
BRANCH   2  14
ATOM     14  O   UNL     1       6.445  13.144  -4.760  0.00  0.00    +0.000 OA
ATOM     15  H   UNL     1       6.258  13.958  -4.262  0.00  0.00    +0.000 HD
ENDBRANCH   2  14
BRANCH   1  16
ATOM     16  C   UNL     1       8.312  12.686  -2.647  0.00  0.00    +0.000 C 
ATOM     17  H   UNL     1       7.222  12.676  -2.548  0.00  0.00    +0.000 HD
BRANCH  16  18
ATOM     18  C   UNL     1       8.775  13.833  -1.730  0.00  0.00    +0.000 C 
ATOM     19  H   UNL     1       9.199  14.668  -2.297  0.00  0.00    +0.000 HD
ATOM     20  H   UNL     1       9.543  13.482  -1.032  0.00  0.00    +0.000 HD
ATOM     21  H   UNL     1       7.936  14.221  -1.140  0.00  0.00    +0.000 HD
ENDBRANCH  16  18
BRANCH  16  22
ATOM     22  C   UNL     1       8.795  11.338  -2.082  0.00  0.00    +0.000 C 
ATOM     23  H   UNL     1       9.590  10.916  -2.708  0.00  0.00    +0.000 HD
ATOM     24  H   UNL     1       7.971  10.615  -2.053  0.00  0.00    +0.000 HD
ATOM     25  H   UNL     1       9.185  11.435  -1.063  0.00  0.00    +0.000 HD
ENDBRANCH  16  22
ENDBRANCH   1  16
TORSDOF 5
ENDMDL
MODEL 10
REMARK VINA RESULT:    -4.472      1.875      2.386
REMARK INTER + INTRA:          -5.436
REMARK INTER:                  -5.257
REMARK INTRA:                  -0.179
REMARK UNBOUND:                -0.179
REMARK  Name = 6989
REMARK  5 active torsions:
REMARK  status: ('A' for Active; 'I' for Inactive)
REMARK    1  A    between atoms: O_1  and  C_6
REMARK    2  A    between atoms: C_2  and  C_3
REMARK    3  A    between atoms: C_2  and  C_4
REMARK    4  A    between atoms: C_2  and  C_5
REMARK    5  A    between atoms: C_8  and  C_11
REMARK                            x       y       z     vdW  Elec       q    Type
REMARK                         _______ _______ _______ _____ _____    ______ ____
ROOT
ATOM      1  C   UNL     1       7.615  -2.852  -0.967  0.00  0.00    +0.000 A 
ATOM      2  C   UNL     1       7.444  -2.643   0.401  0.00  0.00    +0.000 A 
ATOM      3  C   UNL     1       6.540  -3.281  -1.747  0.00  0.00    +0.000 A 
ATOM      4  C   UNL     1       5.124  -3.292   0.211  0.00  0.00    +0.000 A 
ATOM      5  C   UNL     1       6.199  -2.863   0.991  0.00  0.00    +0.000 A 
ATOM      6  C   UNL     1       5.295  -3.501  -1.158  0.00  0.00    +0.000 A 
ATOM      7  H   UNL     1       6.648  -3.449  -2.814  0.00  0.00    +0.000 HD
ATOM      8  H   UNL     1       6.071  -2.697   2.057  0.00  0.00    +0.000 HD
ATOM      9  H   UNL     1       4.465  -3.833  -1.776  0.00  0.00    +0.000 HD
ENDROOT
BRANCH   4  10
ATOM     10  C   UNL     1       3.793  -3.527   0.840  0.00  0.00    +0.000 C 
ATOM     11  H   UNL     1       3.542  -2.725   1.542  0.00  0.00    +0.000 HD
ATOM     12  H   UNL     1       3.017  -3.577   0.070  0.00  0.00    +0.000 HD
ATOM     13  H   UNL     1       3.784  -4.463   1.409  0.00  0.00    +0.000 HD
ENDBRANCH   4  10
BRANCH   2  14
ATOM     14  O   UNL     1       8.483  -2.224   1.177  0.00  0.00    +0.000 OA
ATOM     15  H   UNL     1       8.302  -1.318   1.479  0.00  0.00    +0.000 HD
ENDBRANCH   2  14
BRANCH   1  16
ATOM     16  C   UNL     1       8.940  -2.622  -1.614  0.00  0.00    +0.000 C 
ATOM     17  H   UNL     1       9.481  -1.803  -1.131  0.00  0.00    +0.000 HD
BRANCH  16  18
ATOM     18  C   UNL     1       8.807  -2.185  -3.085  0.00  0.00    +0.000 C 
ATOM     19  H   UNL     1       7.820  -2.417  -3.496  0.00  0.00    +0.000 HD
ATOM     20  H   UNL     1       9.553  -2.693  -3.706  0.00  0.00    +0.000 HD
ATOM     21  H   UNL     1       8.966  -1.105  -3.185  0.00  0.00    +0.000 HD
ENDBRANCH  16  18
BRANCH  16  22
ATOM     22  C   UNL     1       9.864  -3.849  -1.515  0.00  0.00    +0.000 C 
ATOM     23  H   UNL     1      10.632  -3.696  -0.748  0.00  0.00    +0.000 HD
ATOM     24  H   UNL     1      10.372  -4.027  -2.470  0.00  0.00    +0.000 HD
ATOM     25  H   UNL     1       9.312  -4.760  -1.260  0.00  0.00    +0.000 HD
ENDBRANCH  16  22
ENDBRANCH   1  16
TORSDOF 5
ENDMDL
