MODEL 1
REMARK VINA RESULT:    -4.659      0.000      0.000
REMARK INTER + INTRA:          -7.644
REMARK INTER:                  -6.975
REMARK INTRA:                  -0.669
REMARK UNBOUND:                -0.397
REMARK  Name = 8186
REMARK  10 active torsions:
REMARK  status: ('A' for Active; 'I' for Inactive)
REMARK    1  A    between atoms: C_2  and  C_3
REMARK    2  A    between atoms: C_2  and  C_4
REMARK    3  A    between atoms: C_3  and  C_5
REMARK    4  A    between atoms: C_4  and  C_6
REMARK    5  A    between atoms: C_5  and  C_7
REMARK    6  A    between atoms: C_6  and  C_8
REMARK    7  A    between atoms: C_7  and  C_9
REMARK    8  A    between atoms: C_8  and  C_10
REMARK    9  A    between atoms: C_9  and  C_11
REMARK   10  A    between atoms: C_10  and  C_12
REMARK                            x       y       z     vdW  Elec       q    Type
REMARK                         _______ _______ _______ _____ _____    ______ ____
ROOT
ATOM      1  C   UNL     1       3.438 -11.238  -0.020  0.00  0.00    +0.000 C 
ATOM      2  H   UNL     1       3.675 -10.169  -0.076  0.00  0.00    +0.000 HD
ATOM      3  H   UNL     1       2.375 -11.341  -0.273  0.00  0.00    +0.000 HD
ENDROOT
BRANCH   1   4
ATOM      4  C   UNL     1       3.661 -11.729   1.412  0.00  0.00    +0.000 C 
ATOM      5  H   UNL     1       4.091 -12.738   1.388  0.00  0.00    +0.000 HD
ATOM      6  H   UNL     1       4.401 -11.082   1.901  0.00  0.00    +0.000 HD
BRANCH   4   7
ATOM      7  C   UNL     1       2.380 -11.751   2.253  0.00  0.00    +0.000 C 
ATOM      8  H   UNL     1       2.491 -11.052   3.091  0.00  0.00    +0.000 HD
ATOM      9  H   UNL     1       1.546 -11.381   1.641  0.00  0.00    +0.000 HD
BRANCH   7  10
ATOM     10  C   UNL     1       2.033 -13.137   2.798  0.00  0.00    +0.000 C 
ATOM     11  H   UNL     1       1.547 -13.037   3.776  0.00  0.00    +0.000 HD
ATOM     12  H   UNL     1       1.314 -13.622   2.127  0.00  0.00    +0.000 HD
BRANCH  10  13
ATOM     13  C   UNL     1       3.283 -14.009   2.931  0.00  0.00    +0.000 C 
ATOM     14  H   UNL     1       4.133 -13.395   3.252  0.00  0.00    +0.000 HD
ATOM     15  H   UNL     1       3.543 -14.440   1.957  0.00  0.00    +0.000 HD
BRANCH  13  16
ATOM     16  C   UNL     1       3.073 -15.135   3.931  0.00  0.00    +0.000 C 
ATOM     17  H   UNL     1       2.061 -15.544   3.854  0.00  0.00    +0.000 HD
ATOM     18  H   UNL     1       3.784 -15.945   3.744  0.00  0.00    +0.000 HD
ATOM     19  H   UNL     1       3.223 -14.781   4.956  0.00  0.00    +0.000 HD
ENDBRANCH  13  16
ENDBRANCH  10  13
ENDBRANCH   7  10
ENDBRANCH   4   7
ENDBRANCH   1   4
BRANCH   1  20
ATOM     20  C   UNL     1       4.276 -11.994  -1.057  0.00  0.00    +0.000 C 
ATOM     21  H   UNL     1       3.626 -12.297  -1.887  0.00  0.00    +0.000 HD
ATOM     22  H   UNL     1       5.026 -11.312  -1.475  0.00  0.00    +0.000 HD
BRANCH  20  23
ATOM     23  C   UNL     1       4.979 -13.228  -0.486  0.00  0.00    +0.000 C 
ATOM     24  H   UNL     1       4.861 -13.245   0.604  0.00  0.00    +0.000 HD
ATOM     25  H   UNL     1       4.500 -14.133  -0.878  0.00  0.00    +0.000 HD
BRANCH  23  26
ATOM     26  C   UNL     1       6.465 -13.232  -0.845  0.00  0.00    +0.000 C 
ATOM     27  H   UNL     1       6.967 -14.054  -0.318  0.00  0.00    +0.000 HD
ATOM     28  H   UNL     1       6.580 -13.427  -1.918  0.00  0.00    +0.000 HD
BRANCH  26  29
ATOM     29  C   UNL     1       7.128 -11.908  -0.480  0.00  0.00    +0.000 C 
ATOM     30  H   UNL     1       6.939 -11.651   0.567  0.00  0.00    +0.000 HD
ATOM     31  H   UNL     1       6.752 -11.097  -1.113  0.00  0.00    +0.000 HD
BRANCH  29  33
ATOM     32  O   UNL     1       9.231 -11.318  -1.494  0.00  0.00    +0.000 OA
ATOM     33  C   UNL     1       8.617 -12.000  -0.679  0.00  0.00    +0.000 C 
ATOM     34  H   UNL     1       9.140 -12.731  -0.040  0.00  0.00    +0.000 HD
ENDBRANCH  29  33
ENDBRANCH  26  29
ENDBRANCH  23  26
ENDBRANCH  20  23
ENDBRANCH   1  20
TORSDOF 10
ENDMDL
MODEL 2
REMARK VINA RESULT:    -4.618     16.546     17.765
REMARK INTER + INTRA:          -7.581
REMARK INTER:                  -6.601
REMARK INTRA:                  -0.979
REMARK UNBOUND:                -0.397
REMARK  Name = 8186
REMARK  10 active torsions:
REMARK  status: ('A' for Active; 'I' for Inactive)
REMARK    1  A    between atoms: C_2  and  C_3
REMARK    2  A    between atoms: C_2  and  C_4
REMARK    3  A    between atoms: C_3  and  C_5
REMARK    4  A    between atoms: C_4  and  C_6
REMARK    5  A    between atoms: C_5  and  C_7
REMARK    6  A    between atoms: C_6  and  C_8
REMARK    7  A    between atoms: C_7  and  C_9
REMARK    8  A    between atoms: C_8  and  C_10
REMARK    9  A    between atoms: C_9  and  C_11
REMARK   10  A    between atoms: C_10  and  C_12
REMARK                            x       y       z     vdW  Elec       q    Type
REMARK                         _______ _______ _______ _____ _____    ______ ____
ROOT
ATOM      1  C   UNL     1      -0.762  -5.941  16.588  0.00  0.00    +0.000 C 
ATOM      2  H   UNL     1      -1.720  -5.675  16.124  0.00  0.00    +0.000 HD
ATOM      3  H   UNL     1      -0.885  -5.806  17.669  0.00  0.00    +0.000 HD
ENDROOT
BRANCH   1   4
ATOM      4  C   UNL     1       0.325  -4.989  16.084  0.00  0.00    +0.000 C 
ATOM      5  H   UNL     1      -0.099  -3.985  15.961  0.00  0.00    +0.000 HD
ATOM      6  H   UNL     1       1.110  -4.909  16.847  0.00  0.00    +0.000 HD
BRANCH   4   7
ATOM      7  C   UNL     1       0.954  -5.433  14.760  0.00  0.00    +0.000 C 
ATOM      8  H   UNL     1       1.137  -6.514  14.796  0.00  0.00    +0.000 HD
ATOM      9  H   UNL     1       0.236  -5.260  13.948  0.00  0.00    +0.000 HD
BRANCH   7  10
ATOM     10  C   UNL     1       2.266  -4.714  14.439  0.00  0.00    +0.000 C 
ATOM     11  H   UNL     1       3.112  -5.379  14.651  0.00  0.00    +0.000 HD
ATOM     12  H   UNL     1       2.300  -4.480  13.368  0.00  0.00    +0.000 HD
BRANCH  10  13
ATOM     13  C   UNL     1       2.406  -3.427  15.252  0.00  0.00    +0.000 C 
ATOM     14  H   UNL     1       2.587  -3.670  16.306  0.00  0.00    +0.000 HD
ATOM     15  H   UNL     1       1.473  -2.853  15.207  0.00  0.00    +0.000 HD
BRANCH  13  16
ATOM     16  C   UNL     1       3.545  -2.562  14.736  0.00  0.00    +0.000 C 
ATOM     17  H   UNL     1       3.245  -1.511  14.679  0.00  0.00    +0.000 HD
ATOM     18  H   UNL     1       4.409  -2.634  15.404  0.00  0.00    +0.000 HD
ATOM     19  H   UNL     1       3.860  -2.884  13.738  0.00  0.00    +0.000 HD
ENDBRANCH  13  16
ENDBRANCH  10  13
ENDBRANCH   7  10
ENDBRANCH   4   7
ENDBRANCH   1   4
BRANCH   1  20
ATOM     20  C   UNL     1      -0.457  -7.415  16.298  0.00  0.00    +0.000 C 
ATOM     21  H   UNL     1      -1.387  -7.923  16.015  0.00  0.00    +0.000 HD
ATOM     22  H   UNL     1       0.214  -7.477  15.432  0.00  0.00    +0.000 HD
BRANCH  20  23
ATOM     23  C   UNL     1       0.180  -8.147  17.482  0.00  0.00    +0.000 C 
ATOM     24  H   UNL     1       0.459  -7.420  18.255  0.00  0.00    +0.000 HD
ATOM     25  H   UNL     1      -0.555  -8.827  17.928  0.00  0.00    +0.000 HD
BRANCH  23  26
ATOM     26  C   UNL     1       1.416  -8.935  17.045  0.00  0.00    +0.000 C 
ATOM     27  H   UNL     1       1.704  -9.635  17.839  0.00  0.00    +0.000 HD
ATOM     28  H   UNL     1       1.168  -9.540  16.164  0.00  0.00    +0.000 HD
BRANCH  26  29
ATOM     29  C   UNL     1       2.583  -8.006  16.730  0.00  0.00    +0.000 C 
ATOM     30  H   UNL     1       2.380  -7.411  15.833  0.00  0.00    +0.000 HD
ATOM     31  H   UNL     1       3.503  -8.577  16.571  0.00  0.00    +0.000 HD
BRANCH  29  33
ATOM     32  O   UNL     1       3.253  -5.920  17.730  0.00  0.00    +0.000 OA
ATOM     33  C   UNL     1       2.817  -7.058  17.876  0.00  0.00    +0.000 C 
ATOM     34  H   UNL     1       2.575  -7.451  18.877  0.00  0.00    +0.000 HD
ENDBRANCH  29  33
ENDBRANCH  26  29
ENDBRANCH  23  26
ENDBRANCH  20  23
ENDBRANCH   1  20
TORSDOF 10
ENDMDL
MODEL 3
REMARK VINA RESULT:    -4.516     15.099     18.200
REMARK INTER + INTRA:          -7.422
REMARK INTER:                  -7.026
REMARK INTRA:                  -0.396
REMARK UNBOUND:                -0.397
REMARK  Name = 8186
REMARK  10 active torsions:
REMARK  status: ('A' for Active; 'I' for Inactive)
REMARK    1  A    between atoms: C_2  and  C_3
REMARK    2  A    between atoms: C_2  and  C_4
REMARK    3  A    between atoms: C_3  and  C_5
REMARK    4  A    between atoms: C_4  and  C_6
REMARK    5  A    between atoms: C_5  and  C_7
REMARK    6  A    between atoms: C_6  and  C_8
REMARK    7  A    between atoms: C_7  and  C_9
REMARK    8  A    between atoms: C_8  and  C_10
REMARK    9  A    between atoms: C_9  and  C_11
REMARK   10  A    between atoms: C_10  and  C_12
REMARK                            x       y       z     vdW  Elec       q    Type
REMARK                         _______ _______ _______ _____ _____    ______ ____
ROOT
ATOM      1  C   UNL     1     -10.567 -14.787   6.918  0.00  0.00    +0.000 C 
ATOM      2  H   UNL     1     -11.369 -14.887   6.177  0.00  0.00    +0.000 HD
ATOM      3  H   UNL     1     -10.762 -13.862   7.474  0.00  0.00    +0.000 HD
ENDROOT
BRANCH   1   4
ATOM      4  C   UNL     1      -9.224 -14.664   6.195  0.00  0.00    +0.000 C 
ATOM      5  H   UNL     1      -9.167 -15.419   5.402  0.00  0.00    +0.000 HD
ATOM      6  H   UNL     1      -9.172 -13.684   5.703  0.00  0.00    +0.000 HD
BRANCH   4   7
ATOM      7  C   UNL     1      -8.018 -14.822   7.126  0.00  0.00    +0.000 C 
ATOM      8  H   UNL     1      -8.372 -15.104   8.125  0.00  0.00    +0.000 HD
ATOM      9  H   UNL     1      -7.396 -15.653   6.766  0.00  0.00    +0.000 HD
BRANCH   7  10
ATOM     10  C   UNL     1      -7.163 -13.558   7.235  0.00  0.00    +0.000 C 
ATOM     11  H   UNL     1      -7.753 -12.687   6.925  0.00  0.00    +0.000 HD
ATOM     12  H   UNL     1      -6.879 -13.400   8.283  0.00  0.00    +0.000 HD
BRANCH  10  13
ATOM     13  C   UNL     1      -5.906 -13.663   6.370  0.00  0.00    +0.000 C 
ATOM     14  H   UNL     1      -5.677 -14.717   6.171  0.00  0.00    +0.000 HD
ATOM     15  H   UNL     1      -5.048 -13.240   6.907  0.00  0.00    +0.000 HD
BRANCH  13  16
ATOM     16  C   UNL     1      -6.076 -12.929   5.049  0.00  0.00    +0.000 C 
ATOM     17  H   UNL     1      -5.303 -12.164   4.924  0.00  0.00    +0.000 HD
ATOM     18  H   UNL     1      -5.998 -13.632   4.213  0.00  0.00    +0.000 HD
ATOM     19  H   UNL     1      -7.054 -12.442   4.995  0.00  0.00    +0.000 HD
ENDBRANCH  13  16
ENDBRANCH  10  13
ENDBRANCH   7  10
ENDBRANCH   4   7
ENDBRANCH   1   4
BRANCH   1  20
ATOM     20  C   UNL     1     -10.627 -15.975   7.885  0.00  0.00    +0.000 C 
ATOM     21  H   UNL     1     -10.437 -16.900   7.327  0.00  0.00    +0.000 HD
ATOM     22  H   UNL     1      -9.819 -15.877   8.621  0.00  0.00    +0.000 HD
BRANCH  20  23
ATOM     23  C   UNL     1     -11.965 -16.093   8.619  0.00  0.00    +0.000 C 
ATOM     24  H   UNL     1     -12.650 -16.718   8.034  0.00  0.00    +0.000 HD
ATOM     25  H   UNL     1     -11.810 -16.596   9.581  0.00  0.00    +0.000 HD
BRANCH  23  26
ATOM     26  C   UNL     1     -12.592 -14.717   8.851  0.00  0.00    +0.000 C 
ATOM     27  H   UNL     1     -12.062 -14.205   9.664  0.00  0.00    +0.000 HD
ATOM     28  H   UNL     1     -12.462 -14.103   7.951  0.00  0.00    +0.000 HD
BRANCH  26  29
ATOM     29  C   UNL     1     -14.073 -14.833   9.194  0.00  0.00    +0.000 C 
ATOM     30  H   UNL     1     -14.348 -15.874   9.398  0.00  0.00    +0.000 HD
ATOM     31  H   UNL     1     -14.694 -14.460   8.374  0.00  0.00    +0.000 HD
BRANCH  29  33
ATOM     32  O   UNL     1     -14.889 -12.900  10.375  0.00  0.00    +0.000 OA
ATOM     33  C   UNL     1     -14.387 -14.019  10.421  0.00  0.00    +0.000 C 
ATOM     34  H   UNL     1     -14.133 -14.489  11.385  0.00  0.00    +0.000 HD
ENDBRANCH  29  33
ENDBRANCH  26  29
ENDBRANCH  23  26
ENDBRANCH  20  23
ENDBRANCH   1  20
TORSDOF 10
ENDMDL
MODEL 4
REMARK VINA RESULT:    -4.411     14.533     17.088
REMARK INTER + INTRA:          -7.258
REMARK INTER:                  -6.748
REMARK INTRA:                  -0.510
REMARK UNBOUND:                -0.397
REMARK  Name = 8186
REMARK  10 active torsions:
REMARK  status: ('A' for Active; 'I' for Inactive)
REMARK    1  A    between atoms: C_2  and  C_3
REMARK    2  A    between atoms: C_2  and  C_4
REMARK    3  A    between atoms: C_3  and  C_5
REMARK    4  A    between atoms: C_4  and  C_6
REMARK    5  A    between atoms: C_5  and  C_7
REMARK    6  A    between atoms: C_6  and  C_8
REMARK    7  A    between atoms: C_7  and  C_9
REMARK    8  A    between atoms: C_8  and  C_10
REMARK    9  A    between atoms: C_9  and  C_11
REMARK   10  A    between atoms: C_10  and  C_12
REMARK                            x       y       z     vdW  Elec       q    Type
REMARK                         _______ _______ _______ _____ _____    ______ ____
ROOT
ATOM      1  C   UNL     1     -11.065 -14.619   7.639  0.00  0.00    +0.000 C 
ATOM      2  H   UNL     1     -10.229 -14.189   8.204  0.00  0.00    +0.000 HD
ATOM      3  H   UNL     1     -11.751 -13.793   7.411  0.00  0.00    +0.000 HD
ENDROOT
BRANCH   1   4
ATOM      4  C   UNL     1     -11.790 -15.645   8.512  0.00  0.00    +0.000 C 
ATOM      5  H   UNL     1     -11.204 -16.572   8.548  0.00  0.00    +0.000 HD
ATOM      6  H   UNL     1     -11.844 -15.265   9.540  0.00  0.00    +0.000 HD
BRANCH   4   7
ATOM      7  C   UNL     1     -13.206 -15.966   8.021  0.00  0.00    +0.000 C 
ATOM      8  H   UNL     1     -13.205 -15.996   6.925  0.00  0.00    +0.000 HD
ATOM      9  H   UNL     1     -13.483 -16.971   8.365  0.00  0.00    +0.000 HD
BRANCH   7  10
ATOM     10  C   UNL     1     -14.256 -14.960   8.495  0.00  0.00    +0.000 C 
ATOM     11  H   UNL     1     -14.273 -14.098   7.816  0.00  0.00    +0.000 HD
ATOM     12  H   UNL     1     -15.249 -15.424   8.453  0.00  0.00    +0.000 HD
BRANCH  10  13
ATOM     13  C   UNL     1     -13.968 -14.487   9.920  0.00  0.00    +0.000 C 
ATOM     14  H   UNL     1     -12.893 -14.559  10.126  0.00  0.00    +0.000 HD
ATOM     15  H   UNL     1     -14.480 -15.136  10.640  0.00  0.00    +0.000 HD
BRANCH  13  16
ATOM     16  C   UNL     1     -14.423 -13.052  10.134  0.00  0.00    +0.000 C 
ATOM     17  H   UNL     1     -13.754 -12.348   9.629  0.00  0.00    +0.000 HD
ATOM     18  H   UNL     1     -15.432 -12.910   9.733  0.00  0.00    +0.000 HD
ATOM     19  H   UNL     1     -14.443 -12.803  11.200  0.00  0.00    +0.000 HD
ENDBRANCH  13  16
ENDBRANCH  10  13
ENDBRANCH   7  10
ENDBRANCH   4   7
ENDBRANCH   1   4
BRANCH   1  20
ATOM     20  C   UNL     1     -10.535 -15.206   6.327  0.00  0.00    +0.000 C 
ATOM     21  H   UNL     1     -10.497 -16.300   6.415  0.00  0.00    +0.000 HD
ATOM     22  H   UNL     1     -11.244 -14.978   5.521  0.00  0.00    +0.000 HD
BRANCH  20  23
ATOM     23  C   UNL     1      -9.149 -14.682   5.942  0.00  0.00    +0.000 C 
ATOM     24  H   UNL     1      -8.761 -15.259   5.095  0.00  0.00    +0.000 HD
ATOM     25  H   UNL     1      -9.233 -13.639   5.613  0.00  0.00    +0.000 HD
BRANCH  23  26
ATOM     26  C   UNL     1      -8.177 -14.775   7.118  0.00  0.00    +0.000 C 
ATOM     27  H   UNL     1      -8.739 -14.935   8.047  0.00  0.00    +0.000 HD
ATOM     28  H   UNL     1      -7.529 -15.651   6.986  0.00  0.00    +0.000 HD
BRANCH  26  29
ATOM     29  C   UNL     1      -7.330 -13.513   7.240  0.00  0.00    +0.000 C 
ATOM     30  H   UNL     1      -7.000 -13.361   8.273  0.00  0.00    +0.000 HD
ATOM     31  H   UNL     1      -7.895 -12.632   6.919  0.00  0.00    +0.000 HD
BRANCH  29  33
ATOM     32  O   UNL     1      -5.995 -13.046   5.291  0.00  0.00    +0.000 OA
ATOM     33  C   UNL     1      -6.107 -13.622   6.369  0.00  0.00    +0.000 C 
ATOM     34  H   UNL     1      -5.299 -14.264   6.758  0.00  0.00    +0.000 HD
ENDBRANCH  29  33
ENDBRANCH  26  29
ENDBRANCH  23  26
ENDBRANCH  20  23
ENDBRANCH   1  20
TORSDOF 10
ENDMDL
MODEL 5
REMARK VINA RESULT:    -4.403      4.985      9.736
REMARK INTER + INTRA:          -7.245
REMARK INTER:                  -6.821
REMARK INTRA:                  -0.424
REMARK UNBOUND:                -0.397
REMARK  Name = 8186
REMARK  10 active torsions:
REMARK  status: ('A' for Active; 'I' for Inactive)
REMARK    1  A    between atoms: C_2  and  C_3
REMARK    2  A    between atoms: C_2  and  C_4
REMARK    3  A    between atoms: C_3  and  C_5
REMARK    4  A    between atoms: C_4  and  C_6
REMARK    5  A    between atoms: C_5  and  C_7
REMARK    6  A    between atoms: C_6  and  C_8
REMARK    7  A    between atoms: C_7  and  C_9
REMARK    8  A    between atoms: C_8  and  C_10
REMARK    9  A    between atoms: C_9  and  C_11
REMARK   10  A    between atoms: C_10  and  C_12
REMARK                            x       y       z     vdW  Elec       q    Type
REMARK                         _______ _______ _______ _____ _____    ______ ____
ROOT
ATOM      1  C   UNL     1      11.093 -10.325  -2.413  0.00  0.00    +0.000 C 
ATOM      2  H   UNL     1      11.592 -11.159  -1.905  0.00  0.00    +0.000 HD
ATOM      3  H   UNL     1      10.150 -10.716  -2.813  0.00  0.00    +0.000 HD
ENDROOT
BRANCH   1   4
ATOM      4  C   UNL     1      11.968  -9.843  -3.572  0.00  0.00    +0.000 C 
ATOM      5  H   UNL     1      11.863 -10.533  -4.419  0.00  0.00    +0.000 HD
ATOM      6  H   UNL     1      11.603  -8.866  -3.913  0.00  0.00    +0.000 HD
BRANCH   4   7
ATOM      7  C   UNL     1      13.451  -9.724  -3.204  0.00  0.00    +0.000 C 
ATOM      8  H   UNL     1      13.648  -8.709  -2.839  0.00  0.00    +0.000 HD
ATOM      9  H   UNL     1      13.668 -10.407  -2.372  0.00  0.00    +0.000 HD
BRANCH   7  10
ATOM     10  C   UNL     1      14.394 -10.030  -4.370  0.00  0.00    +0.000 C 
ATOM     11  H   UNL     1      15.351 -10.398  -3.982  0.00  0.00    +0.000 HD
ATOM     12  H   UNL     1      13.964 -10.831  -4.984  0.00  0.00    +0.000 HD
BRANCH  10  13
ATOM     13  C   UNL     1      14.629  -8.790  -5.232  0.00  0.00    +0.000 C 
ATOM     14  H   UNL     1      15.706  -8.622  -5.358  0.00  0.00    +0.000 HD
ATOM     15  H   UNL     1      14.220  -7.904  -4.731  0.00  0.00    +0.000 HD
BRANCH  13  16
ATOM     16  C   UNL     1      13.981  -8.930  -6.600  0.00  0.00    +0.000 C 
ATOM     17  H   UNL     1      13.381  -8.047  -6.842  0.00  0.00    +0.000 HD
ATOM     18  H   UNL     1      14.748  -9.042  -7.373  0.00  0.00    +0.000 HD
ATOM     19  H   UNL     1      13.330  -9.809  -6.636  0.00  0.00    +0.000 HD
ENDBRANCH  13  16
ENDBRANCH  10  13
ENDBRANCH   7  10
ENDBRANCH   4   7
ENDBRANCH   1   4
BRANCH   1  20
ATOM     20  C   UNL     1      10.786  -9.226  -1.389  0.00  0.00    +0.000 C 
ATOM     21  H   UNL     1      11.730  -8.838  -0.987  0.00  0.00    +0.000 HD
ATOM     22  H   UNL     1      10.293  -8.390  -1.901  0.00  0.00    +0.000 HD
BRANCH  20  23
ATOM     23  C   UNL     1       9.901  -9.702  -0.235  0.00  0.00    +0.000 C 
ATOM     24  H   UNL     1      10.198 -10.715   0.061  0.00  0.00    +0.000 HD
ATOM     25  H   UNL     1      10.055  -9.052   0.634  0.00  0.00    +0.000 HD
BRANCH  23  26
ATOM     26  C   UNL     1       8.424  -9.693  -0.631  0.00  0.00    +0.000 C 
ATOM     27  H   UNL     1       7.858  -9.073   0.076  0.00  0.00    +0.000 HD
ATOM     28  H   UNL     1       8.315  -9.228  -1.618  0.00  0.00    +0.000 HD
BRANCH  26  29
ATOM     29  C   UNL     1       7.847 -11.104  -0.652  0.00  0.00    +0.000 C 
ATOM     30  H   UNL     1       7.712 -11.458  -1.679  0.00  0.00    +0.000 HD
ATOM     31  H   UNL     1       6.880 -11.138  -0.140  0.00  0.00    +0.000 HD
BRANCH  29  33
ATOM     32  O   UNL     1       8.387 -12.953   0.794  0.00  0.00    +0.000 OA
ATOM     33  C   UNL     1       8.777 -12.057   0.052  0.00  0.00    +0.000 C 
ATOM     34  H   UNL     1       9.852 -11.901  -0.136  0.00  0.00    +0.000 HD
ENDBRANCH  29  33
ENDBRANCH  26  29
ENDBRANCH  23  26
ENDBRANCH  20  23
ENDBRANCH   1  20
TORSDOF 10
ENDMDL
MODEL 6
REMARK VINA RESULT:    -4.386     13.112     15.019
REMARK INTER + INTRA:          -7.220
REMARK INTER:                  -6.180
REMARK INTRA:                  -1.040
REMARK UNBOUND:                -0.397
REMARK  Name = 8186
REMARK  10 active torsions:
REMARK  status: ('A' for Active; 'I' for Inactive)
REMARK    1  A    between atoms: C_2  and  C_3
REMARK    2  A    between atoms: C_2  and  C_4
REMARK    3  A    between atoms: C_3  and  C_5
REMARK    4  A    between atoms: C_4  and  C_6
REMARK    5  A    between atoms: C_5  and  C_7
REMARK    6  A    between atoms: C_6  and  C_8
REMARK    7  A    between atoms: C_7  and  C_9
REMARK    8  A    between atoms: C_8  and  C_10
REMARK    9  A    between atoms: C_9  and  C_11
REMARK   10  A    between atoms: C_10  and  C_12
REMARK                            x       y       z     vdW  Elec       q    Type
REMARK                         _______ _______ _______ _____ _____    ______ ____
ROOT
ATOM      1  C   UNL     1      -4.829  -6.629  -9.974  0.00  0.00    +0.000 C 
ATOM      2  H   UNL     1      -5.163  -7.613 -10.324  0.00  0.00    +0.000 HD
ATOM      3  H   UNL     1      -4.988  -5.927 -10.802  0.00  0.00    +0.000 HD
ENDROOT
BRANCH   1   4
ATOM      4  C   UNL     1      -3.335  -6.689  -9.648  0.00  0.00    +0.000 C 
ATOM      5  H   UNL     1      -2.760  -6.329 -10.510  0.00  0.00    +0.000 HD
ATOM      6  H   UNL     1      -3.123  -6.003  -8.817  0.00  0.00    +0.000 HD
BRANCH   4   7
ATOM      7  C   UNL     1      -2.852  -8.094  -9.274  0.00  0.00    +0.000 C 
ATOM      8  H   UNL     1      -1.773  -8.162  -9.458  0.00  0.00    +0.000 HD
ATOM      9  H   UNL     1      -3.000  -8.247  -8.197  0.00  0.00    +0.000 HD
BRANCH   7  10
ATOM     10  C   UNL     1      -3.563  -9.207 -10.047  0.00  0.00    +0.000 C 
ATOM     11  H   UNL     1      -4.346  -8.772 -10.681  0.00  0.00    +0.000 HD
ATOM     12  H   UNL     1      -2.845  -9.703 -10.713  0.00  0.00    +0.000 HD
BRANCH  10  13
ATOM     13  C   UNL     1      -4.180 -10.234  -9.098  0.00  0.00    +0.000 C 
ATOM     14  H   UNL     1      -3.765 -11.228  -9.303  0.00  0.00    +0.000 HD
ATOM     15  H   UNL     1      -5.262 -10.294  -9.265  0.00  0.00    +0.000 HD
BRANCH  13  16
ATOM     16  C   UNL     1      -3.921  -9.875  -7.643  0.00  0.00    +0.000 C 
ATOM     17  H   UNL     1      -4.790 -10.109  -7.021  0.00  0.00    +0.000 HD
ATOM     18  H   UNL     1      -3.065 -10.439  -7.260  0.00  0.00    +0.000 HD
ATOM     19  H   UNL     1      -3.700  -8.808  -7.537  0.00  0.00    +0.000 HD
ENDBRANCH  13  16
ENDBRANCH  10  13
ENDBRANCH   7  10
ENDBRANCH   4   7
ENDBRANCH   1   4
BRANCH   1  20
ATOM     20  C   UNL     1      -5.692  -6.201  -8.782  0.00  0.00    +0.000 C 
ATOM     21  H   UNL     1      -5.040  -6.002  -7.922  0.00  0.00    +0.000 HD
ATOM     22  H   UNL     1      -6.193  -5.256  -9.025  0.00  0.00    +0.000 HD
BRANCH  20  23
ATOM     23  C   UNL     1      -6.744  -7.242  -8.390  0.00  0.00    +0.000 C 
ATOM     24  H   UNL     1      -7.725  -6.932  -8.769  0.00  0.00    +0.000 HD
ATOM     25  H   UNL     1      -6.501  -8.201  -8.863  0.00  0.00    +0.000 HD
BRANCH  23  26
ATOM     26  C   UNL     1      -6.810  -7.416  -6.872  0.00  0.00    +0.000 C 
ATOM     27  H   UNL     1      -5.819  -7.236  -6.438  0.00  0.00    +0.000 HD
ATOM     28  H   UNL     1      -7.483  -6.661  -6.448  0.00  0.00    +0.000 HD
BRANCH  26  29
ATOM     29  C   UNL     1      -7.290  -8.813  -6.494  0.00  0.00    +0.000 C 
ATOM     30  H   UNL     1      -6.736  -9.580  -7.046  0.00  0.00    +0.000 HD
ATOM     31  H   UNL     1      -8.357  -8.930  -6.708  0.00  0.00    +0.000 HD
BRANCH  29  33
ATOM     32  O   UNL     1      -8.002  -9.281  -4.242  0.00  0.00    +0.000 OA
ATOM     33  C   UNL     1      -7.082  -9.054  -5.023  0.00  0.00    +0.000 C 
ATOM     34  H   UNL     1      -6.037  -9.012  -4.675  0.00  0.00    +0.000 HD
ENDBRANCH  29  33
ENDBRANCH  26  29
ENDBRANCH  23  26
ENDBRANCH  20  23
ENDBRANCH   1  20
TORSDOF 10
ENDMDL
MODEL 7
REMARK VINA RESULT:    -4.327     17.356     18.253
REMARK INTER + INTRA:          -7.128
REMARK INTER:                  -6.881
REMARK INTRA:                  -0.247
REMARK UNBOUND:                -0.397
REMARK  Name = 8186
REMARK  10 active torsions:
REMARK  status: ('A' for Active; 'I' for Inactive)
REMARK    1  A    between atoms: C_2  and  C_3
REMARK    2  A    between atoms: C_2  and  C_4
REMARK    3  A    between atoms: C_3  and  C_5
REMARK    4  A    between atoms: C_4  and  C_6
REMARK    5  A    between atoms: C_5  and  C_7
REMARK    6  A    between atoms: C_6  and  C_8
REMARK    7  A    between atoms: C_7  and  C_9
REMARK    8  A    between atoms: C_8  and  C_10
REMARK    9  A    between atoms: C_9  and  C_11
REMARK   10  A    between atoms: C_10  and  C_12
REMARK                            x       y       z     vdW  Elec       q    Type
REMARK                         _______ _______ _______ _____ _____    ______ ____
ROOT
ATOM      1  C   UNL     1      -0.412 -10.693  18.204  0.00  0.00    +0.000 C 
ATOM      2  H   UNL     1       0.307 -11.395  18.642  0.00  0.00    +0.000 HD
ATOM      3  H   UNL     1      -0.957 -10.234  19.038  0.00  0.00    +0.000 HD
ENDROOT
BRANCH   1   4
ATOM      4  C   UNL     1      -1.401 -11.465  17.326  0.00  0.00    +0.000 C 
ATOM      5  H   UNL     1      -1.997 -10.756  16.739  0.00  0.00    +0.000 HD
ATOM      6  H   UNL     1      -0.839 -12.076  16.608  0.00  0.00    +0.000 HD
BRANCH   4   7
ATOM      7  C   UNL     1      -2.343 -12.370  18.126  0.00  0.00    +0.000 C 
ATOM      8  H   UNL     1      -2.039 -13.415  17.986  0.00  0.00    +0.000 HD
ATOM      9  H   UNL     1      -2.228 -12.148  19.196  0.00  0.00    +0.000 HD
BRANCH   7  10
ATOM     10  C   UNL     1      -3.813 -12.218  17.732  0.00  0.00    +0.000 C 
ATOM     11  H   UNL     1      -4.322 -11.567  18.453  0.00  0.00    +0.000 HD
ATOM     12  H   UNL     1      -3.878 -11.729  16.752  0.00  0.00    +0.000 HD
BRANCH  10  13
ATOM     13  C   UNL     1      -4.516 -13.575  17.678  0.00  0.00    +0.000 C 
ATOM     14  H   UNL     1      -4.393 -14.019  16.683  0.00  0.00    +0.000 HD
ATOM     15  H   UNL     1      -5.592 -13.446  17.844  0.00  0.00    +0.000 HD
BRANCH  13  16
ATOM     16  C   UNL     1      -3.963 -14.531  18.724  0.00  0.00    +0.000 C 
ATOM     17  H   UNL     1      -3.459 -13.984  19.527  0.00  0.00    +0.000 HD
ATOM     18  H   UNL     1      -4.774 -15.117  19.168  0.00  0.00    +0.000 HD
ATOM     19  H   UNL     1      -3.245 -15.227  18.278  0.00  0.00    +0.000 HD
ENDBRANCH  13  16
ENDBRANCH  10  13
ENDBRANCH   7  10
ENDBRANCH   4   7
ENDBRANCH   1   4
BRANCH   1  20
ATOM     20  C   UNL     1       0.350  -9.604  17.442  0.00  0.00    +0.000 C 
ATOM     21  H   UNL     1       1.399  -9.609  17.766  0.00  0.00    +0.000 HD
ATOM     22  H   UNL     1       0.348  -9.848  16.372  0.00  0.00    +0.000 HD
BRANCH  20  23
ATOM     23  C   UNL     1      -0.234  -8.203  17.640  0.00  0.00    +0.000 C 
ATOM     24  H   UNL     1      -1.236  -8.282  18.077  0.00  0.00    +0.000 HD
ATOM     25  H   UNL     1       0.387  -7.647  18.352  0.00  0.00    +0.000 HD
BRANCH  23  26
ATOM     26  C   UNL     1      -0.308  -7.442  16.316  0.00  0.00    +0.000 C 
ATOM     27  H   UNL     1       0.575  -7.677  15.708  0.00  0.00    +0.000 HD
ATOM     28  H   UNL     1      -1.182  -7.783  15.749  0.00  0.00    +0.000 HD
BRANCH  26  29
ATOM     29  C   UNL     1      -0.389  -5.937  16.544  0.00  0.00    +0.000 C 
ATOM     30  H   UNL     1      -0.034  -5.672  17.546  0.00  0.00    +0.000 HD
ATOM     31  H   UNL     1      -1.418  -5.580  16.431  0.00  0.00    +0.000 HD
BRANCH  29  33
ATOM     32  O   UNL     1       1.080  -4.181  15.797  0.00  0.00    +0.000 OA
ATOM     33  C   UNL     1       0.467  -5.212  15.539  0.00  0.00    +0.000 C 
ATOM     34  H   UNL     1       0.511  -5.665  14.535  0.00  0.00    +0.000 HD
ENDBRANCH  29  33
ENDBRANCH  26  29
ENDBRANCH  23  26
ENDBRANCH  20  23
ENDBRANCH   1  20
TORSDOF 10
ENDMDL
MODEL 8
REMARK VINA RESULT:    -4.221      2.465      5.530
REMARK INTER + INTRA:          -6.963
REMARK INTER:                  -6.253
REMARK INTRA:                  -0.710
REMARK UNBOUND:                -0.397
REMARK  Name = 8186
REMARK  10 active torsions:
REMARK  status: ('A' for Active; 'I' for Inactive)
REMARK    1  A    between atoms: C_2  and  C_3
REMARK    2  A    between atoms: C_2  and  C_4
REMARK    3  A    between atoms: C_3  and  C_5
REMARK    4  A    between atoms: C_4  and  C_6
REMARK    5  A    between atoms: C_5  and  C_7
REMARK    6  A    between atoms: C_6  and  C_8
REMARK    7  A    between atoms: C_7  and  C_9
REMARK    8  A    between atoms: C_8  and  C_10
REMARK    9  A    between atoms: C_9  and  C_11
REMARK   10  A    between atoms: C_10  and  C_12
REMARK                            x       y       z     vdW  Elec       q    Type
REMARK                         _______ _______ _______ _____ _____    ______ ____
ROOT
ATOM      1  C   UNL     1       4.204 -12.241   1.332  0.00  0.00    +0.000 C 
ATOM      2  H   UNL     1       3.922 -13.257   1.031  0.00  0.00    +0.000 HD
ATOM      3  H   UNL     1       4.194 -11.627   0.422  0.00  0.00    +0.000 HD
ENDROOT
BRANCH   1   4
ATOM      4  C   UNL     1       5.622 -12.260   1.907  0.00  0.00    +0.000 C 
ATOM      5  H   UNL     1       6.038 -11.245   1.883  0.00  0.00    +0.000 HD
ATOM      6  H   UNL     1       5.574 -12.557   2.963  0.00  0.00    +0.000 HD
BRANCH   4   7
ATOM      7  C   UNL     1       6.566 -13.208   1.161  0.00  0.00    +0.000 C 
ATOM      8  H   UNL     1       7.594 -13.025   1.497  0.00  0.00    +0.000 HD
ATOM      9  H   UNL     1       6.323 -14.243   1.437  0.00  0.00    +0.000 HD
BRANCH   7  10
ATOM     10  C   UNL     1       6.501 -13.059  -0.360  0.00  0.00    +0.000 C 
ATOM     11  H   UNL     1       6.191 -14.010  -0.810  0.00  0.00    +0.000 HD
ATOM     12  H   UNL     1       5.739 -12.314  -0.620  0.00  0.00    +0.000 HD
BRANCH  10  13
ATOM     13  C   UNL     1       7.853 -12.635  -0.934  0.00  0.00    +0.000 C 
ATOM     14  H   UNL     1       7.868 -12.802  -2.017  0.00  0.00    +0.000 HD
ATOM     15  H   UNL     1       8.652 -13.248  -0.500  0.00  0.00    +0.000 HD
BRANCH  13  16
ATOM     16  C   UNL     1       8.144 -11.169  -0.650  0.00  0.00    +0.000 C 
ATOM     17  H   UNL     1       8.191 -10.980   0.427  0.00  0.00    +0.000 HD
ATOM     18  H   UNL     1       9.105 -10.882  -1.088  0.00  0.00    +0.000 HD
ATOM     19  H   UNL     1       7.369 -10.526  -1.078  0.00  0.00    +0.000 HD
ENDBRANCH  13  16
ENDBRANCH  10  13
ENDBRANCH   7  10
ENDBRANCH   4   7
ENDBRANCH   1   4
BRANCH   1  20
ATOM     20  C   UNL     1       3.159 -11.699   2.313  0.00  0.00    +0.000 C 
ATOM     21  H   UNL     1       3.672 -11.307   3.200  0.00  0.00    +0.000 HD
ATOM     22  H   UNL     1       2.639 -10.852   1.849  0.00  0.00    +0.000 HD
BRANCH  20  23
ATOM     23  C   UNL     1       2.130 -12.747   2.744  0.00  0.00    +0.000 C 
ATOM     24  H   UNL     1       1.351 -12.268   3.349  0.00  0.00    +0.000 HD
ATOM     25  H   UNL     1       1.641 -13.164   1.856  0.00  0.00    +0.000 HD
BRANCH  23  26
ATOM     26  C   UNL     1       2.788 -13.870   3.547  0.00  0.00    +0.000 C 
ATOM     27  H   UNL     1       3.860 -13.663   3.657  0.00  0.00    +0.000 HD
ATOM     28  H   UNL     1       2.364 -13.891   4.559  0.00  0.00    +0.000 HD
BRANCH  26  29
ATOM     29  C   UNL     1       2.593 -15.223   2.872  0.00  0.00    +0.000 C 
ATOM     30  H   UNL     1       1.902 -15.143   2.026  0.00  0.00    +0.000 HD
ATOM     31  H   UNL     1       2.197 -15.958   3.579  0.00  0.00    +0.000 HD
BRANCH  29  33
ATOM     32  O   UNL     1       4.107 -16.011   1.173  0.00  0.00    +0.000 OA
ATOM     33  C   UNL     1       3.909 -15.739   2.353  0.00  0.00    +0.000 C 
ATOM     34  H   UNL     1       4.702 -15.867   3.108  0.00  0.00    +0.000 HD
ENDBRANCH  29  33
ENDBRANCH  26  29
ENDBRANCH  23  26
ENDBRANCH  20  23
ENDBRANCH   1  20
TORSDOF 10
ENDMDL
MODEL 9
REMARK VINA RESULT:    -4.188     16.483     17.576
REMARK INTER + INTRA:          -6.911
REMARK INTER:                  -5.701
REMARK INTRA:                  -1.210
REMARK UNBOUND:                -0.397
REMARK  Name = 8186
REMARK  10 active torsions:
REMARK  status: ('A' for Active; 'I' for Inactive)
REMARK    1  A    between atoms: C_2  and  C_3
REMARK    2  A    between atoms: C_2  and  C_4
REMARK    3  A    between atoms: C_3  and  C_5
REMARK    4  A    between atoms: C_4  and  C_6
REMARK    5  A    between atoms: C_5  and  C_7
REMARK    6  A    between atoms: C_6  and  C_8
REMARK    7  A    between atoms: C_7  and  C_9
REMARK    8  A    between atoms: C_8  and  C_10
REMARK    9  A    between atoms: C_9  and  C_11
REMARK   10  A    between atoms: C_10  and  C_12
REMARK                            x       y       z     vdW  Elec       q    Type
REMARK                         _______ _______ _______ _____ _____    ______ ____
ROOT
ATOM      1  C   UNL     1      -0.546  -7.597  16.759  0.00  0.00    +0.000 C 
ATOM      2  H   UNL     1      -0.943  -7.067  17.633  0.00  0.00    +0.000 HD
ATOM      3  H   UNL     1      -1.362  -8.215  16.365  0.00  0.00    +0.000 HD
ENDROOT
BRANCH   1   4
ATOM      4  C   UNL     1       0.603  -8.507  17.199  0.00  0.00    +0.000 C 
ATOM      5  H   UNL     1       0.832  -8.318  18.255  0.00  0.00    +0.000 HD
ATOM      6  H   UNL     1       0.278  -9.553  17.127  0.00  0.00    +0.000 HD
BRANCH   4   7
ATOM      7  C   UNL     1       1.877  -8.320  16.369  0.00  0.00    +0.000 C 
ATOM      8  H   UNL     1       2.117  -9.263  15.865  0.00  0.00    +0.000 HD
ATOM      9  H   UNL     1       1.684  -7.580  15.580  0.00  0.00    +0.000 HD
BRANCH   7  10
ATOM     10  C   UNL     1       3.083  -7.873  17.198  0.00  0.00    +0.000 C 
ATOM     11  H   UNL     1       3.634  -8.755  17.549  0.00  0.00    +0.000 HD
ATOM     12  H   UNL     1       3.767  -7.296  16.563  0.00  0.00    +0.000 HD
BRANCH  10  13
ATOM     13  C   UNL     1       2.651  -7.026  18.394  0.00  0.00    +0.000 C 
ATOM     14  H   UNL     1       2.404  -7.676  19.242  0.00  0.00    +0.000 HD
ATOM     15  H   UNL     1       1.744  -6.462  18.144  0.00  0.00    +0.000 HD
BRANCH  13  16
ATOM     16  C   UNL     1       3.741  -6.052  18.811  0.00  0.00    +0.000 C 
ATOM     17  H   UNL     1       3.987  -6.169  19.872  0.00  0.00    +0.000 HD
ATOM     18  H   UNL     1       4.651  -6.230  18.230  0.00  0.00    +0.000 HD
ATOM     19  H   UNL     1       3.427  -5.017  18.643  0.00  0.00    +0.000 HD
ENDBRANCH  13  16
ENDBRANCH  10  13
ENDBRANCH   7  10
ENDBRANCH   4   7
ENDBRANCH   1   4
BRANCH   1  20
ATOM     20  C   UNL     1      -0.134  -6.573  15.695  0.00  0.00    +0.000 C 
ATOM     21  H   UNL     1       0.770  -6.931  15.186  0.00  0.00    +0.000 HD
ATOM     22  H   UNL     1      -0.921  -6.512  14.934  0.00  0.00    +0.000 HD
BRANCH  20  23
ATOM     23  C   UNL     1       0.126  -5.176  16.265  0.00  0.00    +0.000 C 
ATOM     24  H   UNL     1      -0.829  -4.654  16.403  0.00  0.00    +0.000 HD
ATOM     25  H   UNL     1       0.592  -5.267  17.253  0.00  0.00    +0.000 HD
BRANCH  23  26
ATOM     26  C   UNL     1       1.030  -4.361  15.340  0.00  0.00    +0.000 C 
ATOM     27  H   UNL     1       1.086  -4.849  14.358  0.00  0.00    +0.000 HD
ATOM     28  H   UNL     1       0.586  -3.371  15.176  0.00  0.00    +0.000 HD
BRANCH  26  29
ATOM     29  C   UNL     1       2.431  -4.214  15.922  0.00  0.00    +0.000 C 
ATOM     30  H   UNL     1       2.496  -4.680  16.911  0.00  0.00    +0.000 HD
ATOM     31  H   UNL     1       2.707  -3.158  16.013  0.00  0.00    +0.000 HD
BRANCH  29  33
ATOM     32  O   UNL     1       4.560  -5.211  15.400  0.00  0.00    +0.000 OA
ATOM     33  C   UNL     1       3.439  -4.880  15.024  0.00  0.00    +0.000 C 
ATOM     34  H   UNL     1       3.112  -5.057  13.986  0.00  0.00    +0.000 HD
ENDBRANCH  29  33
ENDBRANCH  26  29
ENDBRANCH  23  26
ENDBRANCH  20  23
ENDBRANCH   1  20
TORSDOF 10
ENDMDL
MODEL 10
REMARK VINA RESULT:    -4.168     24.570     26.070
REMARK INTER + INTRA:          -6.880
REMARK INTER:                  -6.483
REMARK INTRA:                  -0.397
REMARK UNBOUND:                -0.397
REMARK  Name = 8186
REMARK  10 active torsions:
REMARK  status: ('A' for Active; 'I' for Inactive)
REMARK    1  A    between atoms: C_2  and  C_3
REMARK    2  A    between atoms: C_2  and  C_4
REMARK    3  A    between atoms: C_3  and  C_5
REMARK    4  A    between atoms: C_4  and  C_6
REMARK    5  A    between atoms: C_5  and  C_7
REMARK    6  A    between atoms: C_6  and  C_8
REMARK    7  A    between atoms: C_7  and  C_9
REMARK    8  A    between atoms: C_8  and  C_10
REMARK    9  A    between atoms: C_9  and  C_11
REMARK   10  A    between atoms: C_10  and  C_12
REMARK                            x       y       z     vdW  Elec       q    Type
REMARK                         _______ _______ _______ _____ _____    ______ ____
ROOT
ATOM      1  C   UNL     1       7.959  13.026  -1.407  0.00  0.00    +0.000 C 
ATOM      2  H   UNL     1       7.868  13.773  -2.205  0.00  0.00    +0.000 HD
ATOM      3  H   UNL     1       8.621  13.456  -0.645  0.00  0.00    +0.000 HD
ENDROOT
BRANCH   1   4
ATOM      4  C   UNL     1       8.605  11.759  -1.974  0.00  0.00    +0.000 C 
ATOM      5  H   UNL     1       9.502  11.517  -1.392  0.00  0.00    +0.000 HD
ATOM      6  H   UNL     1       7.910  10.918  -1.849  0.00  0.00    +0.000 HD
BRANCH   4   7
ATOM      7  C   UNL     1       8.984  11.882  -3.453  0.00  0.00    +0.000 C 
ATOM      8  H   UNL     1      10.073  11.792  -3.551  0.00  0.00    +0.000 HD
ATOM      9  H   UNL     1       8.546  11.040  -4.005  0.00  0.00    +0.000 HD
BRANCH   7  10
ATOM     10  C   UNL     1       8.531  13.197  -4.090  0.00  0.00    +0.000 C 
ATOM     11  H   UNL     1       7.635  13.565  -3.576  0.00  0.00    +0.000 HD
ATOM     12  H   UNL     1       9.314  13.954  -3.959  0.00  0.00    +0.000 HD
BRANCH  10  13
ATOM     13  C   UNL     1       8.232  13.018  -5.579  0.00  0.00    +0.000 C 
ATOM     14  H   UNL     1       8.045  13.994  -6.042  0.00  0.00    +0.000 HD
ATOM     15  H   UNL     1       7.323  12.418  -5.708  0.00  0.00    +0.000 HD
BRANCH  13  16
ATOM     16  C   UNL     1       9.384  12.334  -6.300  0.00  0.00    +0.000 C 
ATOM     17  H   UNL     1      10.234  12.185  -5.627  0.00  0.00    +0.000 HD
ATOM     18  H   UNL     1       9.069  11.355  -6.674  0.00  0.00    +0.000 HD
ATOM     19  H   UNL     1       9.721  12.932  -7.153  0.00  0.00    +0.000 HD
ENDBRANCH  13  16
ENDBRANCH  10  13
ENDBRANCH   7  10
ENDBRANCH   4   7
ENDBRANCH   1   4
BRANCH   1  20
ATOM     20  C   UNL     1       6.578  12.778  -0.791  0.00  0.00    +0.000 C 
ATOM     21  H   UNL     1       5.877  13.531  -1.171  0.00  0.00    +0.000 HD
ATOM     22  H   UNL     1       6.208  11.802  -1.127  0.00  0.00    +0.000 HD
BRANCH  20  23
ATOM     23  C   UNL     1       6.581  12.816   0.740  0.00  0.00    +0.000 C 
ATOM     24  H   UNL     1       7.615  12.799   1.105  0.00  0.00    +0.000 HD
ATOM     25  H   UNL     1       6.133  13.756   1.081  0.00  0.00    +0.000 HD
BRANCH  23  26
ATOM     26  C   UNL     1       5.809  11.633   1.324  0.00  0.00    +0.000 C 
ATOM     27  H   UNL     1       5.111  11.243   0.572  0.00  0.00    +0.000 HD
ATOM     28  H   UNL     1       6.508  10.821   1.557  0.00  0.00    +0.000 HD
BRANCH  26  29
ATOM     29  C   UNL     1       5.041  12.036   2.578  0.00  0.00    +0.000 C 
ATOM     30  H   UNL     1       5.723  12.391   3.358  0.00  0.00    +0.000 HD
ATOM     31  H   UNL     1       4.467  11.191   2.972  0.00  0.00    +0.000 HD
BRANCH  29  33
ATOM     32  O   UNL     1       2.939  12.950   1.840  0.00  0.00    +0.000 OA
ATOM     33  C   UNL     1       4.075  13.146   2.261  0.00  0.00    +0.000 C 
ATOM     34  H   UNL     1       4.451  14.169   2.428  0.00  0.00    +0.000 HD
ENDBRANCH  29  33
ENDBRANCH  26  29
ENDBRANCH  23  26
ENDBRANCH  20  23
ENDBRANCH   1  20
TORSDOF 10
ENDMDL
